data_image0
_chemical_formula_structural       H56C56N4O8I4
_chemical_formula_sum              "H56 C56 N4 O8 I4"
_cell_length_a       10.20897363473629
_cell_length_b       11.459667457902441
_cell_length_c       12.152305974643983
_cell_angle_alpha    109.69134921916327
_cell_angle_beta     89.86913403244003
_cell_angle_gamma    93.51930317329405

_space_group_name_H-M_alt    "P 1"
_space_group_IT_number       1

loop_
  _space_group_symop_operation_xyz
  'x, y, z'

loop_
  _atom_site_type_symbol
  _atom_site_label
  _atom_site_symmetry_multiplicity
  _atom_site_fract_x
  _atom_site_fract_y
  _atom_site_fract_z
  _atom_site_occupancy
  H   H1        1.0  0.2795115388914468  0.14620159681185896  0.5852869143670452  1.0000
  H   H2        1.0  0.7204884605954659  0.8537984028019728  0.4147130853318663  1.0000
  H   H3        1.0  0.5422387816937356  0.5481116152255645  0.4120975448552618  1.0000
  H   H4        1.0  0.4577612178510942  0.4518883852598658  0.5879024548362787  1.0000
  H   H5        1.0  0.19403935378218873  0.607512809861887  0.4137533088383205  1.0000
  H   H6        1.0  0.8059606457047239  0.39248718975194474  0.586246690860591  1.0000
  H   H7        1.0  0.3084387403184208  0.49081833941922504  0.3955966300955829  1.0000
  H   H8        1.0  0.691561259168492  0.5091816601946069  0.6044033696033286  1.0000
  H   H9        1.0  0.3748497561140144  0.8131942818927733  0.6487490625745681  1.0000
  H   H10       1.0  0.6251502433728983  0.18680571772105853  0.35125093712434335  1.0000
  H   H11       1.0  0.3360558025764258  0.8241167663403256  0.09381514731898308  1.0000
  H   H12       1.0  0.6639441969104869  0.17588323327350627  0.9061848523799284  1.0000
  H   H13       1.0  0.26633348885772573  0.15041277520599625  0.3871046375093137  1.0000
  H   H14       1.0  0.7336665106291869  0.8495872244078357  0.612895362189598  1.0000
  H   H15       1.0  0.5261316313053305  0.5567127981237108  0.1292744972372649  1.0000
  H   H16       1.0  0.4738683692190385  0.44328720236190416  0.8707255024495234  1.0000
  H   H17       1.0  0.598508367270748  0.7061529644747083  0.44281044573546885  1.0000
  H   H18       1.0  0.4014916322161647  0.29384703513912347  0.5571895539634426  1.0000
  H   H19       1.0  0.2792351893091206  0.5991534839197097  0.538893284927238  1.0000
  H   H20       1.0  0.7207648112402818  0.4008465168866792  0.4611067156336732  1.0000
  H   H21       1.0  0.32296546276926935  0.03547707500899516  0.7238066341172221  1.0000
  H   H22       1.0  0.6770345367426767  0.9645229249256108  0.2761933664558124  1.0000
  H   H23       1.0  0.27866682076653526  0.045192047297146896  0.1730467503096673  1.0000
  H   H24       1.0  0.7213331787203774  0.954807952316685  0.8269532493892442  1.0000
  H   H25       1.0  0.3932917247215551  0.6508333772379107  0.2982904451608536  1.0000
  H   H26       1.0  0.606708275744897  0.3491666223761056  0.7017095545333056  1.0000
  H   H27       1.0  0.5266257332877836  0.6585173892169098  0.5567121610705068  1.0000
  H   H28       1.0  0.4733742672037017  0.34148261071788033  0.44328783949777534  1.0000
  H   H29       1.0  0.17932906435563262  0.6113630692002778  0.1993548718612417  1.0000
  H   H30       1.0  0.8206709351563135  0.38863693073432787  0.8006451287117926  1.0000
  H   H31       1.0  0.2921362711936028  0.49771762940547676  0.1251251766749224  1.0000
  H   H32       1.0  0.7078637293557997  0.502282371400912  0.8748748238859888  1.0000
  H   H33       1.0  0.2514826041174489  0.6131818230507926  0.06497045172158404  1.0000
  H   H34       1.0  0.7485173953944971  0.38681817688381315  0.9350295488514504  1.0000
  H   H35       1.0  0.582809944792365  0.7145241477447739  0.20146161301596513  1.0000
  H   H36       1.0  0.41719005567408696  0.28547585186924235  0.7985383866781941  1.0000
  H   H37       1.0  0.492042684376525  0.6733587045230878  0.0666175458793766  1.0000
  H   H38       1.0  0.507957316089927  0.32664129509092854  0.9333824538147826  1.0000
  H   H39       1.0  0.21071557732217114  0.34443483520317064  0.16538921297525858  1.0000
  H   H40       1.0  0.7892844232272312  0.6555651656032181  0.8346107875856524  1.0000
  H   H41       1.0  0.3083906632790109  0.9420389417135344  0.8665657739578364  1.0000
  H   H42       1.0  0.6916093362079018  0.05796105790029745  0.13343422574107494  1.0000
  H   H43       1.0  0.4889812519838601  0.08334176941983885  0.9894913145231655  1.0000
  H   H44       1.0  0.5110187485655423  0.91665823138655  0.010508686037745598  1.0000
  H   H45       1.0  0.08021392685919544  0.011001861782144717  0.8827626728433849  1.0000
  H   H46       1.0  0.9197860726527506  0.988998138152461  0.11723732772964952  1.0000
  H   H47       1.0  0.07432982176972916  0.9041211892963376  0.49794638055778484  1.0000
  H   H48       1.0  0.9256701777751006  0.09587881118909278  0.5020536191337557  1.0000
  H   H49       1.0  0.026985702563192902  0.8811018857777437  0.29093524676721627  1.0000
  H   H50       1.0  0.9730142979032592  0.1188981138362726  0.709064752926943  1.0000
  H   H51       1.0  0.8496937146797807  0.5577878982815373  0.45060236036147394  1.0000
  H   H52       1.0  0.15030628480713198  0.44221210133229455  0.5493976393374376  1.0000
  H   H53       1.0  0.8885635266291496  0.6958741051400619  0.16417241326243892  1.0000
  H   H54       1.0  0.11143647392025278  0.30412589566632703  0.8358275872984723  1.0000
  H   H55       1.0  0.6707139883131118  0.3517711063189562  0.21862596124005693  1.0000
  H   H56       1.0  0.32928601215334014  0.6482288932950603  0.7813740384541024  1.0000
  C   C1        1.0  0.3061512130526374  0.049985378677574896  0.5531289846754396  1.0000
  C   C2        1.0  0.6938487874388478  0.9500146212572153  0.4468710158928426  1.0000
  C   C3        1.0  0.3511080370877049  0.8056127027357437  0.26263290484868346  1.0000
  C   C4        1.0  0.6488919634037805  0.1943872971990467  0.7373670957195988  1.0000
  C   C5        1.0  0.3656056659780735  0.7995820418204381  0.46876376984977686  1.0000
  C   C6        1.0  0.6343943345134119  0.2004179581143521  0.5312362307185053  1.0000
  C   C7        1.0  0.2906725849479071  0.05363120353321178  0.35175828149888355  1.0000
  C   C8        1.0  0.709327414621956  0.9463687972729927  0.6482417190667799  1.0000
  C   C9        1.0  0.34477317409844943  0.86151172290846  0.38645975623258494  1.0000
  C   C10       1.0  0.655226826450953  0.13848827789792867  0.6135402443283261  1.0000
  C   C11       1.0  0.32869364078576174  0.988020965128154  0.6298973773869864  1.0000
  C   C12       1.0  0.6713063597057235  0.01197903480663628  0.3701026231812958  1.0000
  C   C13       1.0  0.3141246577521853  0.9898542485244624  0.4307841846564169  1.0000
  C   C14       1.0  0.6858753427393001  0.01014575141032799  0.5692158159118653  1.0000
  C   C15       1.0  0.2979619178895506  0.9954827616040478  0.2327952399013979  1.0000
  C   C16       1.0  0.7020380816223953  0.0045172383305579576  0.7672047606716366  1.0000
  C   C17       1.0  0.3295790043253005  0.8703154773568227  0.1879594855010161  1.0000
  C   C18       1.0  0.6704209951616122  0.12968452225700908  0.8120405141978955  1.0000
  C   C19       1.0  0.35831880763529844  0.8620513489051069  0.587390671570208  1.0000
  C   C20       1.0  0.6416811928561869  0.13794865102968323  0.4126093289980742  1.0000
  C   C21       1.0  0.5229582244672915  0.6443025344103037  0.46244210991019363  1.0000
  C   C22       1.0  0.4770417759991605  0.3556974652037126  0.5375578897839657  1.0000
  C   C23       1.0  0.28737063725503237  0.586794650727367  0.4454197136080351  1.0000
  C   C24       1.0  0.7126293622897973  0.4132053497580634  0.5545802860835054  1.0000
  C   C25       1.0  0.26732130368602497  0.5940951204854222  0.14604781280207232  1.0000
  C   C26       1.0  0.7326786958008877  0.40590487912840956  0.8539521868968392  1.0000
  C   C27       1.0  0.5032861661913381  0.6532956940120586  0.1478789829530077  1.0000
  C   C28       1.0  0.4967138333206079  0.3467043059225473  0.8521210176200268  1.0000
  C   C29       1.0  0.15869927129507422  0.07020028670149028  0.9385941883075343  1.0000
  C   C30       1.0  0.8413007291964111  0.9297997132333001  0.061405812260748  1.0000
  C   C31       1.0  0.38805738263675793  0.10948787401641863  0.9984591933921133  1.0000
  C   C32       1.0  0.6119426178296941  0.8905121255975976  0.001540806302046086  1.0000
  C   C33       1.0  0.23191931181075665  0.25853926593979526  0.09672655103231576  1.0000
  C   C34       1.0  0.7680806887386458  0.7414607348665936  0.9032734495285953  1.0000
  C   C35       1.0  0.3608716989192045  0.22182105108132488  0.08420692099353552  1.0000
  C   C36       1.0  0.6391283015472475  0.7781789485326915  0.9157930787006237  1.0000
  C   C37       1.0  0.46741484571818065  0.3042179710487888  0.1644250921153955  1.0000
  C   C38       1.0  0.5325851537687321  0.6957820285650431  0.835574907583516  1.0000
  C   C39       1.0  0.1330125968838016  0.18397334033229146  0.022330850237648456  1.0000
  C   C40       1.0  0.8669874026031111  0.8160266592815404  0.977669149461263  1.0000
  C   C41       1.0  0.28746096467576837  0.032752234912411714  0.9281938062074482  1.0000
  C   C42       1.0  0.7125390348111444  0.96724776470142  0.07180619349146336  1.0000
  C   C43       1.0  0.8878373941644084  0.6297683021247845  0.4172087406646568  1.0000
  C   C44       1.0  0.11216260538042137  0.3702316983606458  0.5827912590268837  1.0000
  C   C45       1.0  0.8606356371524247  0.6173782373434865  0.30064184816152617  1.0000
  C   C46       1.0  0.13936436333906052  0.3826217625913038  0.699358152406756  1.0000
  C   C47       1.0  0.7783346996326652  0.5072383383208284  0.22373388792403606  1.0000
  C   C48       1.0  0.22166529991216455  0.49276166216460193  0.7762661117675045  1.0000
  C   C49       1.0  0.9105239994419911  0.7080565320066033  0.2552097617519584  1.0000
  C   C50       1.0  0.08947600108237791  0.29194346847901137  0.7447902379348298  1.0000
  C   C51       1.0  0.9640307293569389  0.7330801027996586  0.48751908487906787  1.0000
  C   C52       1.0  0.03596927119246361  0.2669198980067301  0.5124809156818433  1.0000
  C   C53       1.0  0.014303541495554213  0.8239904105492633  0.4428395750910061  1.0000
  C   C54       1.0  0.9856964589959311  0.17600958938552708  0.5571604254772762  1.0000
  C   C55       1.0  0.9873190488962156  0.8106013268175182  0.32614572040343953  1.0000
  C   C56       1.0  0.012680950590697246  0.18939867279631378  0.6738542792954719  1.0000
  N   N1        1.0  0.39396394266792856  0.669199004528872  0.42417708543053984  1.0000
  N   N2        1.0  0.6060360568769012  0.3308009959565583  0.5758229142610006  1.0000
  N   N3        1.0  0.3798069018271286  0.6741370395938886  0.21456722059441607  1.0000
  N   N4        1.0  0.6201930976848173  0.3258629603407172  0.7854327799786184  1.0000
  O   O1        1.0  0.4394748435276128  0.4087583666596849  0.23238853832681278  1.0000
  O   O2        1.0  0.5605251569388392  0.5912416329543315  0.7676114613673466  1.0000
  O   O3        1.0  0.5821125024427874  0.25985223611342934  0.15589190351059792  1.0000
  O   O4        1.0  0.41788749704412537  0.7401477635004026  0.8441080961883137  1.0000
  O   O5        1.0  0.7414890508604922  0.42570806294024294  0.2740661315882393  1.0000
  O   O6        1.0  0.25851094966387683  0.5742919375453719  0.725933868098549  1.0000
  O   O7        1.0  0.7497173085842218  0.4975216585652419  0.12174221773389544  1.0000
  O   O8        1.0  0.2502826918822301  0.5024783410487744  0.8782577819602638  1.0000
  I   I1        1.0  0.9429725697485678  0.2495226034214957  0.04009488915128092  1.0000
  I   I2        1.0  0.05702743074291729  0.7504773965132947  0.9599051114170014  1.0000
  I   I3        1.0  0.006970994792600001  0.7466831939254974  0.6616207432651897  1.0000
  I   I4        1.0  0.9930290047193461  0.25331680600910844  0.3383792573078447  1.0000
