data_image0
_chemical_formula_structural       H56C56N4O8I4
_chemical_formula_sum              "H56 C56 N4 O8 I4"
_cell_length_a       10.326887643151599
_cell_length_b       10.947330740785892
_cell_length_c       12.660976346640965
_cell_angle_alpha    68.69905132409733
_cell_angle_beta     88.46556412503426
_cell_angle_gamma    80.1998658004676

_space_group_name_H-M_alt    "P 1"
_space_group_IT_number       1

loop_
  _space_group_symop_operation_xyz
  'x, y, z'

loop_
  _atom_site_type_symbol
  _atom_site_label
  _atom_site_symmetry_multiplicity
  _atom_site_fract_x
  _atom_site_fract_y
  _atom_site_fract_z
  _atom_site_occupancy
  H   H1        1.0  0.36444037925056577  0.9686904163539017  0.8095046188035815  1.0000
  H   H2        1.0  0.6355596202562052  0.031309584176144434  0.1904953811809819  1.0000
  H   H3        1.0  0.7982230856511193  0.9678178923020114  0.968333526929446  1.0000
  H   H4        1.0  0.2017769138556516  0.03218210822803472  0.0316664730551175  1.0000
  H   H5        1.0  0.454225537740262  0.7865469181163255  0.9876730592410271  1.0000
  H   H6        1.0  0.5457744619383026  0.21345308148695213  0.012326940743038719  1.0000
  H   H7        1.0  0.6714137906114144  0.7895029841184877  0.06986133372301645  1.0000
  H   H8        1.0  0.32858621003468047  0.21049701548932628  0.9301386662606327  1.0000
  H   H9        1.0  0.2974014808433422  0.2827594370023547  0.5965410940687613  1.0000
  H   H10       1.0  0.7025985198027527  0.7172405626054594  0.4034589059148878  1.0000
  H   H11       1.0  0.6731759906446799  0.23577663015287328  0.3834924786491391  1.0000
  H   H12       1.0  0.3268240089002152  0.7642233700141801  0.6165075221837845  1.0000
  H   H13       1.0  0.7825051951395927  0.4078129198313617  0.9080303008921067  1.0000
  H   H14       1.0  0.21749480453897188  0.5921870797719159  0.09196969909195894  1.0000
  H   H15       1.0  0.4253732193642991  0.503881776677115  0.2703335729423878  1.0000
  H   H16       1.0  0.5746267811100021  0.4961182238574678  0.7296664270417591  1.0000
  H   H17       1.0  0.44035708332401546  0.3788703440633891  0.4097472180426415  1.0000
  H   H18       1.0  0.5596429173220793  0.6211296555444251  0.5902527819410076  1.0000
  H   H19       1.0  0.4287088003464587  0.33316421169880944  0.2893378869935044  1.0000
  H   H20       1.0  0.571291199332106  0.6668357879044678  0.7106621129905613  1.0000
  H   H21       1.0  0.8844722607276548  0.9457326508529476  0.3418184850736819  1.0000
  H   H22       1.0  0.11552773974664626  0.054267349681635345  0.658181514910465  1.0000
  H   H23       1.0  0.8993866258402512  0.18123136135520723  0.9852523775193291  1.0000
  H   H24       1.0  0.10061337366651976  0.8187686391748389  0.014747622465234126  1.0000
  H   H25       1.0  0.6026181447221896  0.0405482802056862  0.5187948572577517  1.0000
  H   H26       1.0  0.3973818547845813  0.9594517203243599  0.48120514272681175  1.0000
  H   H27       1.0  0.5595491068922822  0.06787973016742527  0.37493331344204806  1.0000
  H   H28       1.0  0.440450893582019  0.9321202703671576  0.6250666865420988  1.0000
  H   H29       1.0  0.6922064808897126  0.9361016682540962  0.44941677243657724  1.0000
  H   H30       1.0  0.30779351975638214  0.06389833135371788  0.5505832275470718  1.0000
  H   H31       1.0  0.9661539497057959  0.9685128533309144  0.1493399383870253  1.0000
  H   H32       1.0  0.033846049972768674  0.03148714627236305  0.8506600615970403  1.0000
  H   H33       1.0  0.5642355647983579  0.5854992863652734  0.12586136042652185  1.0000
  H   H34       1.0  0.43576443584773683  0.4145007132425408  0.8741386395571272  1.0000
  H   H35       1.0  0.8883495362992663  0.9994396646720266  0.510081281323195  1.0000
  H   H36       1.0  0.11165046434682849  0.0005603349357873143  0.4899187186604542  1.0000
  H   H37       1.0  0.9091686322280492  0.1712994300456727  0.4558973111143886  1.0000
  H   H38       1.0  0.09083136824625193  0.8287005704889101  0.5441026888697583  1.0000
  H   H39       1.0  0.7920048470505847  0.11638046293004423  0.5624201073319126  1.0000
  H   H40       1.0  0.20799515262798002  0.8836195366732331  0.4375798926521531  1.0000
  H   H41       1.0  0.6425080735242739  0.6024830305647104  0.9338234339395869  1.0000
  H   H42       1.0  0.35749192712182093  0.39751696904310374  0.06617656604406214  1.0000
  H   H43       1.0  0.6421998681009684  0.5651762137945463  0.3191867590219646  1.0000
  H   H44       1.0  0.3578001315775962  0.4348237858087313  0.6808132409621009  1.0000
  H   H45       1.0  0.6446681019220298  0.43496657868368593  0.45548697721778353  1.0000
  H   H46       1.0  0.355331897584741  0.5650334218463603  0.5445130227667799  1.0000
  H   H47       1.0  0.7806912344143551  0.4349919489822019  0.3653954616076978  1.0000
  H   H48       1.0  0.2193087662317397  0.5650080506256123  0.6346045383759513  1.0000
  H   H49       1.0  0.867959744799834  0.6868503822815977  0.0884002846860764  1.0000
  H   H50       1.0  0.13204025584626092  0.31314961732621643  0.9115997152975728  1.0000
  H   H51       1.0  0.04342489473620024  0.5825795487686282  0.4221373340390331  1.0000
  H   H52       1.0  0.9565751049423644  0.41742045083464946  0.5778626659450324  1.0000
  H   H53       1.0  0.9710056919695306  0.4675067515838956  0.08629047667917751  1.0000
  H   H54       1.0  0.02899430770903403  0.5324932480193819  0.9137095233048881  1.0000
  H   H55       1.0  0.9028273769917369  0.7459824530388545  0.2588893942693852  1.0000
  H   H56       1.0  0.0971726236543578  0.25401754656895964  0.741110605714264  1.0000
  C   C1        1.0  0.4718680337361927  0.17028337254318193  0.6745271959204756  1.0000
  C   C2        1.0  0.5281319669099019  0.8297166270646323  0.3254728040631735  1.0000
  C   C3        1.0  0.6551413124760166  0.06484144843427243  0.829285437503178  1.0000
  C   C4        1.0  0.34485868720254814  0.935158551169005  0.17071456248088762  1.0000
  C   C5        1.0  0.5320766089933402  0.06637952605420848  0.7838457109664292  1.0000
  C   C6        1.0  0.4679233916527546  0.9336204735536057  0.2161542890172199  1.0000
  C   C7        1.0  0.46149786129454473  0.964958630512673  0.8432040401191752  1.0000
  C   C8        1.0  0.5385021383840197  0.03504136909060445  0.1567959598648905  1.0000
  C   C9        1.0  0.7048372804275431  0.9654420196394703  0.931915360281731  1.0000
  C   C10       1.0  0.29516272004675803  0.03455798089511263  0.06808463970241582  1.0000
  C   C11       1.0  0.5119480682289883  0.8636605206930389  0.9438279282060509  1.0000
  C   C12       1.0  0.4880519322453128  0.13633947984154401  0.05617207177809598  1.0000
  C   C13       1.0  0.6331571767906577  0.8649292456621598  0.9888847681275751  1.0000
  C   C14       1.0  0.3668428238554372  0.13507075394565415  0.011115231856073972  1.0000
  C   C15       1.0  0.7819200125417952  0.14680639165719342  0.28684701497358556  1.0000
  C   C16       1.0  0.21807998810429946  0.8531936079506209  0.7131529850100635  1.0000
  C   C17       1.0  0.7486815580356307  0.402250217221466  0.9915981990782332  1.0000
  C   C18       1.0  0.25131844147114024  0.5977497833085803  0.008401800906330179  1.0000
  C   C19       1.0  0.7423259788322947  0.2712344946509665  0.1964435620311577  1.0000
  C   C20       1.0  0.25767402084626967  0.728765504952311  0.803556437952908  1.0000
  C   C21       1.0  0.7867649760542013  0.2815687078948815  0.08513115631631304  1.0000
  C   C22       1.0  0.21323502442010006  0.7184312926397015  0.9148688436678337  1.0000
  C   C23       1.0  0.6607830165363117  0.38487562674088205  0.2078362559824876  1.0000
  C   C24       1.0  0.33921698314225285  0.6151243728623954  0.7921637440015781  1.0000
  C   C25       1.0  0.4684926511465904  0.4002182314544016  0.3217493209615563  1.0000
  C   C26       1.0  0.5315073494995045  0.5997817681534124  0.6782506790220929  1.0000
  C   C27       1.0  0.8596776047666207  0.040231555100709596  0.2705049353253724  1.0000
  C   C28       1.0  0.14032239491194387  0.9597684445025677  0.7294950646586933  1.0000
  C   C29       1.0  0.8673359694246702  0.17060570791404836  0.07047274601122658  1.0000
  C   C30       1.0  0.1326640302538946  0.8293942916892291  0.9295272539728391  1.0000
  C   C31       1.0  0.6404423834320785  0.036216537739294834  0.43849905404042205  1.0000
  C   C32       1.0  0.35955761704222267  0.963783462795288  0.5615009459437248  1.0000
  C   C33       1.0  0.9030107307403209  0.0529074598623324  0.160930050888692  1.0000
  C   C34       1.0  0.09698926990577401  0.9470925397454817  0.839069949094957  1.0000
  C   C35       1.0  0.6269635098881735  0.5005904243819964  0.11469874728176427  1.0000
  C   C36       1.0  0.3730364897903911  0.49940957522128093  0.8853012527023015  1.0000
  C   C37       1.0  0.8388776706226045  0.10279939015386504  0.48782912682492413  1.0000
  C   C38       1.0  0.16112232888416642  0.8972006103761813  0.5121708731596393  1.0000
  C   C39       1.0  0.6705647458472059  0.5099331016390496  0.005973985794497703  1.0000
  C   C40       1.0  0.32943525365956505  0.49006689889099664  0.9940260141900656  1.0000
  C   C41       1.0  0.6732906085652516  0.45819508130672937  0.3672120278986236  1.0000
  C   C42       1.0  0.326709391113313  0.5418049182965481  0.6327879720854419  1.0000
  C   C43       1.0  0.062325709327972705  0.4007452648059207  0.25359655670460446  1.0000
  C   C44       1.0  0.9376742911463283  0.5992547357286622  0.7464034432795424  1.0000
  C   C45       1.0  0.14973680342742543  0.33121543948420534  0.4589587057115115  1.0000
  C   C46       1.0  0.8502631962511391  0.6687845601190721  0.5410412942725542  1.0000
  C   C47       1.0  0.9277574363690052  0.6168129217971083  0.16192538962336678  1.0000
  C   C48       1.0  0.07224256427708944  0.38318707781070577  0.8380746103602822  1.0000
  C   C49       1.0  0.025852452793549103  0.5577764923015411  0.3484018715044052  1.0000
  C   C50       1.0  0.9741475468850156  0.4422235073017363  0.6515981284796604  1.0000
  C   C51       1.0  0.08147694731762083  0.43068584348675887  0.35017504988657955  1.0000
  C   C52       1.0  0.9185230523609438  0.5693141561165186  0.6498249500974862  1.0000
  C   C53       1.0  0.985780936581922  0.49284797209064746  0.16015362704014177  1.0000
  C   C54       1.0  0.014219062924848832  0.5071520284393988  0.8398463729444217  1.0000
  C   C55       1.0  0.9484079065730371  0.6500596018325437  0.2559140629267293  1.0000
  C   C56       1.0  0.05159209407305776  0.3499403977752703  0.7440859370569198  1.0000
  N   N1        1.0  0.6131721019121937  0.3759421024121547  0.31896731159862407  1.0000
  N   N2        1.0  0.38682789873390105  0.6240578971956593  0.6810326883850251  1.0000
  N   N3        1.0  0.7330601651872382  0.13265489320651394  0.4001173168717345  1.0000
  N   N4        1.0  0.2669398343195328  0.8673451073235322  0.5998826831128289  1.0000
  O   O1        1.0  0.3455921072051574  0.21061672814352242  0.6802183370650501  1.0000
  O   O2        1.0  0.6544078934409373  0.7893832714642917  0.3197816629185991  1.0000
  O   O3        1.0  0.5378898705508923  0.20857075611765138  0.5890782831268115  1.0000
  O   O4        1.0  0.4621101291276723  0.791429243485626  0.4109217168572541  1.0000
  O   O5        1.0  0.23742032604720723  0.37223599657756284  0.5017210198451251  1.0000
  O   O6        1.0  0.7625796745988875  0.6277640030302513  0.49827898013852395  1.0000
  O   O7        1.0  0.11271874792152238  0.22070228264901398  0.501331905899021  1.0000
  O   O8        1.0  0.8872812515852486  0.7792977178810322  0.4986680940855423  1.0000
  I   I1        1.0  0.7657002170889917  0.21877324546090632  0.7541711554374105  1.0000
  I   I2        1.0  0.23429978338530946  0.7812267550736767  0.2458288445467363  1.0000
  I   I3        1.0  0.1590333504536247  0.22283399200507825  0.23654115117239702  1.0000
  I   I4        1.0  0.8409666500206766  0.7771660085295046  0.7634588488117499  1.0000
