data_image0
_chemical_formula_structural       H60C56N4O8
_chemical_formula_sum              "H60 C56 N4 O8"
_cell_length_a       10.187610153847608
_cell_length_b       11.468303917460984
_cell_length_c       11.9568130160123
_cell_angle_alpha    77.0298494046463
_cell_angle_beta     68.37455007074279
_cell_angle_gamma    65.52293769437905

_space_group_name_H-M_alt    "P 1"
_space_group_IT_number       1

loop_
  _space_group_symop_operation_xyz
  'x, y, z'

loop_
  _atom_site_type_symbol
  _atom_site_label
  _atom_site_symmetry_multiplicity
  _atom_site_fract_x
  _atom_site_fract_y
  _atom_site_fract_z
  _atom_site_occupancy
  H   H1        1.0  0.805809484914482  0.2511083884825105  0.09212430876111093  1.0000
  H   H2        1.0  0.19419051487700906  0.748891611264623  0.9078756913881945  1.0000
  H   H3        1.0  0.9039363309237076  0.2991280543719011  0.3944337130491097  1.0000
  H   H4        1.0  0.09606366845205346  0.7008719463367692  0.6055662870240093  1.0000
  H   H5        1.0  0.11304571483751022  0.37172386345853753  0.25523473697057  1.0000
  H   H6        1.0  0.8869542849539808  0.628276136288596  0.7447652631787354  1.0000
  H   H7        1.0  0.010660305050293774  0.32857077785045713  0.950280328054259  1.0000
  H   H8        1.0  0.9893396947411971  0.6714292218966765  0.04971967209504643  1.0000
  H   H9        1.0  0.16421019698906208  0.38800919117911004  0.03221298044107634  1.0000
  H   H10       1.0  0.8357898038581654  0.6119908085683663  0.9677870193712323  1.0000
  H   H11       1.0  0.31073620645924777  0.03857808515872301  0.6154022350697383  1.0000
  H   H12       1.0  0.6892637933322433  0.9614219145884105  0.384597765079567  1.0000
  H   H13       1.0  0.003169589733065334  0.4300243812857245  0.5810128765731288  1.0000
  H   H14       1.0  0.9968304100584257  0.5699756184614091  0.41898712357617646  1.0000
  H   H15       1.0  0.12645854825635008  0.9998002965871993  0.8101577525732366  1.0000
  H   H16       1.0  0.8735414515351411  0.00019970315993434698  0.18984224757606874  1.0000
  H   H17       1.0  0.8822642996554334  0.1772252955189067  0.8936477367829727  1.0000
  H   H18       1.0  0.11773570119179412  0.8227747042285697  0.10635226302933606  1.0000
  H   H19       1.0  0.5052219157926461  0.19519450755654594  0.3732686451867986  1.0000
  H   H20       1.0  0.494778083998845  0.8048054921905876  0.6267313549625068  1.0000
  H   H21       1.0  0.8228770484346108  0.3934723711790725  0.777459664317416  1.0000
  H   H22       1.0  0.1771229509411503  0.6065276295295978  0.22254033575570303  1.0000
  H   H23       1.0  0.8117014965305432  0.8950046770116157  0.841331695486443  1.0000
  H   H24       1.0  0.1882985043166843  0.10499532273586078  0.1586683043258656  1.0000
  H   H25       1.0  0.7017022339506002  0.4103004335018707  0.6433644854914328  1.0000
  H   H26       1.0  0.29829776584089074  0.5896995662452628  0.3566355146578726  1.0000
  H   H27       1.0  0.3384035132242595  0.28578237569602516  0.7292455949457046  1.0000
  H   H28       1.0  0.661596487622968  0.7142176240514512  0.2707544048666042  1.0000
  H   H29       1.0  0.2983412142402625  0.4545337460907359  0.6967376519414267  1.0000
  H   H30       1.0  0.7016587851354986  0.5454662546179344  0.30326234813169245  1.0000
  H   H31       1.0  0.36312541394373515  0.5288785129652717  0.8443755070094999  1.0000
  H   H32       1.0  0.6368745864877624  0.4711214877437414  0.15562449272662246  1.0000
  H   H33       1.0  0.5215325148102556  0.5311361617124439  0.6455932751465504  1.0000
  H   H34       1.0  0.4784674860369719  0.46886383803503234  0.3544067246657582  1.0000
  H   H35       1.0  0.6182442775168135  0.09032038922556292  0.16589034797568525  1.0000
  H   H36       1.0  0.38175572333041374  0.9096796105219136  0.8341096518366233  1.0000
  H   H37       1.0  0.9042268918707764  0.12509255741771252  0.6388931245367765  1.0000
  H   H38       1.0  0.09577310792071463  0.8749074423294211  0.36110687561252874  1.0000
  H   H39       1.0  0.5033377245662746  0.053129173314531944  0.7287929797144292  1.0000
  H   H40       1.0  0.49666227628095283  0.9468708264329444  0.2712070200978795  1.0000
  H   H41       1.0  0.86001332652849  0.07736854716099847  0.5287659862394786  1.0000
  H   H42       1.0  0.13998667326300115  0.922631452586135  0.4712340139098268  1.0000
  H   H43       1.0  0.4471912028739131  0.31129892755430427  0.17093684551764843  1.0000
  H   H44       1.0  0.552808796917578  0.6887010721928294  0.8290631546316569  1.0000
  H   H45       1.0  0.7788887497510162  0.8906228620133346  0.05811483125274991  1.0000
  H   H46       1.0  0.22111125004047488  0.10937713773379884  0.9418851688965555  1.0000
  H   H47       1.0  0.41414348739843443  0.34675577323890816  0.5790340446604784  1.0000
  H   H48       1.0  0.5858565119773267  0.6532442274697622  0.4209659554126407  1.0000
  H   H49       1.0  0.6287428161914198  0.04238167507908143  0.5775458086964382  1.0000
  H   H50       1.0  0.37125718464884055  0.9576183246686976  0.4224541902816672  1.0000
  H   H51       1.0  0.3213158597917678  0.5166106186345554  0.06354220843815064  1.0000
  H   H52       1.0  0.6786841399997232  0.48338938111257823  0.9364577917111547  1.0000
  H   H53       1.0  0.6221146154176915  0.4199341819545965  0.5302200780913754  1.0000
  H   H54       1.0  0.3778853843737995  0.5800658177925371  0.4697799220579299  1.0000
  H   H55       1.0  0.6794486286737524  0.9195005418617415  0.6950219639634964  1.0000
  H   H56       1.0  0.3205513711177386  0.08049945788539202  0.30497803618580893  1.0000
  H   H57       1.0  0.9211937656692278  0.9617268726919628  0.6474539891730013  1.0000
  H   H58       1.0  0.07880623517799985  0.038273127055513466  0.35254601063930724  1.0000
  H   H59       1.0  0.6303231781984229  0.20464047272741107  0.6748239884354393  1.0000
  H   H60       1.0  0.3696768226488046  0.7953595270200652  0.3251760113768694  1.0000
  C   C1        1.0  0.8745779300519039  0.27786136134199063  0.12585303030048195  1.0000
  C   C2        1.0  0.12542207079532375  0.7221386384054856  0.8741469695118268  1.0000
  C   C3        1.0  0.9299109974693088  0.3047232078529346  0.29678569512380254  1.0000
  C   C4        1.0  0.07008900296218888  0.6952767928560784  0.7032143046123197  1.0000
  C   C5        1.0  0.8431340308520111  0.2707201626254012  0.2511122563435175  1.0000
  C   C6        1.0  0.15686596893947988  0.7292798371217324  0.7488877438057878  1.0000
  C   C7        1.0  0.7125792641271422  0.23300712868077939  0.33666702548027266  1.0000
  C   C8        1.0  0.2874207356643487  0.7669928710663542  0.6633329746690326  1.0000
  C   C9        1.0  0.04566356920774992  0.34655810004697574  0.21849156996137858  1.0000
  C   C10       1.0  0.9543364305837413  0.6534418997001579  0.7815084301879268  1.0000
  C   C11       1.0  0.9886625046679116  0.32123463253927226  0.04751825608395925  1.0000
  C   C12       1.0  0.011337494707849468  0.6787653681693979  0.9524817439891597  1.0000
  C   C13       1.0  0.07416354185045493  0.35549825942800245  0.09367868955250935  1.0000
  C   C14       1.0  0.9258364575253062  0.6445017412806678  0.9063213105206096  1.0000
  C   C15       1.0  0.28043070336241543  0.26187002574180424  0.46784000574233325  1.0000
  C   C16       1.0  0.719569297484812  0.7381299740056722  0.5321599940699754  1.0000
  C   C17       1.0  0.20341401421903452  0.1158874902144748  0.6512680863925474  1.0000
  C   C18       1.0  0.7965859855724565  0.8841125095326589  0.3487319137567579  1.0000
  C   C19       1.0  0.16936586673321197  0.23669127644837445  0.5854092974515944  1.0000
  C   C20       1.0  0.8306341330582792  0.763308723298759  0.4145907026977109  1.0000
  C   C21       1.0  0.031131209617136786  0.3360287408203606  0.6314942686738442  1.0000
  C   C22       1.0  0.9688687912300906  0.6639712589271157  0.3685057311384645  1.0000
  C   C23       1.0  0.9293812062675857  0.31498751956174903  0.7426666753407359  1.0000
  C   C24       1.0  0.07061879310817537  0.6850124811469213  0.25733332473238285  1.0000
  C   C25       1.0  0.10003911390608905  0.0947830021400723  0.7613676301558213  1.0000
  C   C26       1.0  0.899960885885402  0.9052169976070611  0.23863236999348414  1.0000
  C   C27       1.0  0.9630103410548059  0.19448372721375423  0.807834434684711  1.0000
  C   C28       1.0  0.036989658736685194  0.8055162725333793  0.19216556546459446  1.0000
  C   C29       1.0  0.5771843313820975  0.21040036050230582  0.8849072021048471  1.0000
  C   C30       1.0  0.42281566904940016  0.7895996402067073  0.11509279763127517  1.0000
  C   C31       1.0  0.8574438161204598  0.06212390098391162  0.6229930867309001  1.0000
  C   C32       1.0  0.1425561836710311  0.937876098763222  0.37700691341840514  1.0000
  C   C33       1.0  0.6224338564646499  0.022187142960848113  0.6727797076289901  1.0000
  C   C34       1.0  0.3775661433268412  0.9778128567862854  0.3272202925203152  1.0000
  C   C35       1.0  0.5957770707512798  0.4314556177817347  0.6254679709007785  1.0000
  C   C36       1.0  0.40422292862448117  0.5685443829269355  0.3745320291723404  1.0000
  C   C37       1.0  0.3850502576804423  0.3585766036423337  0.6746753162330652  1.0000
  C   C38       1.0  0.6149497421110487  0.6414233961047999  0.32532468391624014  1.0000
  C   C39       1.0  0.5562195979737659  0.20545416672662453  0.011611204847973025  1.0000
  C   C40       1.0  0.44378040181772527  0.7945458330205089  0.9883887953013322  1.0000
  C   C41       1.0  0.5045123559571091  0.33073522493920005  0.8265513870317169  1.0000
  C   C42       1.0  0.49548764383438193  0.6692647748079336  0.17344861311758838  1.0000
  C   C43       1.0  0.6717061761593933  0.09467608304414309  0.8268701564186934  1.0000
  C   C44       1.0  0.32829382427210424  0.9053239176648701  0.17312984331742878  1.0000
  C   C45       1.0  0.4619913891183746  0.3169865742845123  0.07503477014373833  1.0000
  C   C46       1.0  0.5380086106731166  0.6830134254626212  0.924965230005567  1.0000
  C   C47       1.0  0.4160800294913254  0.437673297750102  0.8907168420531991  1.0000
  C   C48       1.0  0.5839199698844357  0.5623267029585683  0.10928315801991989  1.0000
  C   C49       1.0  0.7208955140120173  0.9795010488996874  0.011539018418450423  1.0000
  C   C50       1.0  0.27910448577947367  0.02049895084744627  0.9884609817308551  1.0000
  C   C51       1.0  0.7405532612977209  0.9821730871624829  0.8880042797866421  1.0000
  C   C52       1.0  0.25944673849377003  0.01782691258465075  0.11199572036266317  1.0000
  C   C53       1.0  0.6313591207727779  0.0889629631936772  0.07154906218168816  1.0000
  C   C54       1.0  0.3686408800744497  0.9110370365537991  0.9284509376306204  1.0000
  C   C55       1.0  0.3931280984121996  0.43062329778370245  0.015365438768361188  1.0000
  C   C56       1.0  0.6068719013792915  0.569376701963431  0.9846345613809442  1.0000
  N   N1        1.0  0.6955740507264602  0.09793611933570424  0.6974285790789561  1.0000
  N   N2        1.0  0.30442595012076734  0.9020638804117721  0.30257142073335264  1.0000
  N   N3        1.0  0.5255946919316447  0.33810502586575375  0.6984766453178578  1.0000
  N   N4        1.0  0.4744053089155829  0.6618949738817226  0.3015233544944509  1.0000
  O   O1        1.0  0.6909868111684192  0.2226954953313325  0.4480994318792818  1.0000
  O   O2        1.0  0.3090131896788083  0.7773045044161437  0.5519005679330268  1.0000
  O   O3        1.0  0.6286620211784397  0.21689101977540395  0.286872791999342  1.0000
  O   O4        1.0  0.3713379786130514  0.7831089799717295  0.7131272081499634  1.0000
  O   O5        1.0  0.41568299845890355  0.1691116416766666  0.446529599022012  1.0000
  O   O6        1.0  0.5843170009168576  0.8308883590320036  0.5534704010511069  1.0000
  O   O7        1.0  0.2457602667455835  0.36121413728449847  0.40028686660365204  1.0000
  O   O8        1.0  0.7542397341016439  0.6387858624629779  0.5997131332086566  1.0000
