data_image0
_chemical_formula_structural       H56C64N32S24
_chemical_formula_sum              "H56 C64 N32 S24"
_cell_length_a       12.371920488080406
_cell_length_b       6.34734185757133
_cell_length_c       25.85538386876772
_cell_angle_alpha    90.0
_cell_angle_beta     94.46911033837347
_cell_angle_gamma    90.0

_space_group_name_H-M_alt    "P 1"
_space_group_IT_number       1

loop_
  _space_group_symop_operation_xyz
  'x, y, z'

loop_
  _atom_site_type_symbol
  _atom_site_label
  _atom_site_symmetry_multiplicity
  _atom_site_fract_x
  _atom_site_fract_y
  _atom_site_fract_z
  _atom_site_occupancy
  H   H1        1.0  0.3064314324792659  0.07659953739848431  0.4909632055665162  1.0000
  H   H2        1.0  0.693568567724537  0.07659953739848431  0.009036794383286135  1.0000
  H   H3        1.0  0.8064314322681979  0.5765995360143356  0.49096320540416405  1.0000
  H   H4        1.0  0.1935685671248621  0.5765995360143356  0.00903679451664086  1.0000
  H   H5        1.0  0.6935685675397331  0.9234004629841435  0.5090367946287953  1.0000
  H   H6        1.0  0.3064314322918797  0.9234004629841435  0.9909632054251645  1.0000
  H   H7        1.0  0.1935685677482188  0.4234004627928296  0.5090367944042865  1.0000
  H   H8        1.0  0.8064314328941368  0.4234004627928296  0.9909632056786707  1.0000
  H   H9        1.0  0.38979904421980954  0.02772482622628655  0.6498064560402819  1.0000
  H   H10       1.0  0.6102009556118032  0.02772482622628655  0.8501935440136779  1.0000
  H   H11       1.0  0.8897990448194845  0.5277248264176004  0.6498064559069272  1.0000
  H   H12       1.0  0.11020095582287122  0.5277248264176004  0.8501935441760301  1.0000
  H   H13       1.0  0.6102009557991894  0.9722751725808787  0.3501935441550296  1.0000
  H   H14       1.0  0.3897990444071957  0.9722751725808787  0.14980645618163363  1.0000
  H   H15       1.0  0.11020095519693228  0.47227517238956473  0.35019354390152346  1.0000
  H   H16       1.0  0.8897990441961277  0.47227517238956473  0.1498064560192815  1.0000
  H   H17       1.0  0.4911422803581775  0.5759472645449706  0.5479730078661105  1.0000
  H   H18       1.0  0.5088577194734353  0.5759472645449706  0.952026992187849  1.0000
  H   H19       1.0  0.9911422809578524  0.07594726435365667  0.5479730077327558  1.0000
  H   H20       1.0  0.008857719681921028  0.07594726435365667  0.9520269919633404  1.0000
  H   H21       1.0  0.5088577196608215  0.4240527358376573  0.4520269923292009  1.0000
  H   H22       1.0  0.49114228054556375  0.4240527358376573  0.04797300800746235  1.0000
  H   H23       1.0  0.008857719058564313  0.9240527344535086  0.45202699207569474  1.0000
  H   H24       1.0  0.9911422803344958  0.9240527344535086  0.04797300784511023  1.0000
  H   H25       1.0  0.45489543859954334  0.8431045893040371  0.3361933021947528  1.0000
  H   H26       1.0  0.5451045616068418  0.8431045893040371  0.16380669814191054  1.0000
  H   H27       1.0  0.9548954383884753  0.3431045891127231  0.33619330203240066  1.0000
  H   H28       1.0  0.045104561815327564  0.3431045891127231  0.1638066979174017  1.0000
  H   H29       1.0  0.5451045614194555  0.1568954110785908  0.6638066980005588  1.0000
  H   H30       1.0  0.4548954384121571  0.1568954110785908  0.8361933020534009  1.0000
  H   H31       1.0  0.0451045616305236  0.6568954112699048  0.6638066981629108  1.0000
  H   H32       1.0  0.954895438201089  0.6568954112699048  0.8361933018910489  1.0000
  H   H33       1.0  0.2555344189397466  0.8498755780051946  0.34319716995264876  1.0000
  H   H34       1.0  0.7444655812640564  0.8498755780051946  0.1568028299971536  1.0000
  H   H35       1.0  0.7555344187312608  0.34987557781388073  0.34319717017715756  1.0000
  H   H36       1.0  0.2444655814725421  0.34987557781388073  0.15680282977264476  1.0000
  H   H37       1.0  0.74446558107667  0.15012442237743323  0.6568028298558019  1.0000
  H   H38       1.0  0.25553441875494265  0.15012442237743323  0.843197170198158  1.0000
  H   H39       1.0  0.2444655812877381  0.6501244225687471  0.6568028300181539  1.0000
  H   H40       1.0  0.7555344185438745  0.6501244225687471  0.8431971700358059  1.0000
  H   H41       1.0  0.21590821567530913  0.8864201907273389  0.17653927439498712  1.0000
  H   H42       1.0  0.7840917837177509  0.8864201907273389  0.32346072552581784  1.0000
  H   H43       1.0  0.715908216274984  0.386420190536025  0.17653927426163238  1.0000
  H   H44       1.0  0.2840917839288189  0.386420190536025  0.32346072568816997  1.0000
  H   H45       1.0  0.7840917843436899  0.11357980965528898  0.8234607258003244  1.0000
  H   H46       1.0  0.21590821548792288  0.11357980965528898  0.6765392742536354  1.0000
  H   H47       1.0  0.28409178374143274  0.6135798098466029  0.8234607255468182  1.0000
  H   H48       1.0  0.7159082160901801  0.6135798098466029  0.6765392745071416  1.0000
  H   H49       1.0  0.13196778466522696  0.8631581885675095  0.2613787529847309  1.0000
  H   H50       1.0  0.8680322147278331  0.8631581885675095  0.23862124693607406  1.0000
  H   H51       1.0  0.6319677852674841  0.36315818837619557  0.2613787532382371  1.0000
  H   H52       1.0  0.36803221493631877  0.36315818837619557  0.2386212467115652  1.0000
  H   H53       1.0  0.8680322153511899  0.1368418118151184  0.7386212468237197  1.0000
  H   H54       1.0  0.1319677852911659  0.1368418118151184  0.7613787532592374  1.0000
  H   H55       1.0  0.36803221475151476  0.6368418120064323  0.7386212469570744  1.0000
  H   H56       1.0  0.6319677850800979  0.6368418120064323  0.7613787530968854  1.0000
  C   C1        1.0  0.44505655767515  0.7798625851694757  0.6044535181694267  1.0000
  C   C2        1.0  0.5549434421564627  0.7798625851694757  0.8955464818845331  1.0000
  C   C3        1.0  0.945056557464082  0.2798625849781618  0.6044535180070746  1.0000
  C   C4        1.0  0.054943442367530716  0.2798625849781618  0.895546482046885  1.0000
  C   C5        1.0  0.554943442343849  0.22013741521315208  0.3955464820258848  1.0000
  C   C6        1.0  0.44505655785995396  0.22013741521315208  0.10445351792391755  1.0000
  C   C7        1.0  0.05494344255491693  0.720137415404466  0.3955464821882369  1.0000
  C   C8        1.0  0.9450565576514681  0.720137415404466  0.10445351814842639  1.0000
  C   C9        1.0  0.3389703804884851  0.07759263027758945  0.5708572158104781  1.0000
  C   C10       1.0  0.6610296201512884  0.07759263027758945  0.929142783885618  1.0000
  C   C11       1.0  0.8389703802799993  0.5775926304689033  0.570857216034987  1.0000
  C   C12       1.0  0.16102961955161343  0.5775926304689033  0.9291427840189727  1.0000
  C   C13       1.0  0.6610296195279317  0.9224073701050385  0.4291427839979724  1.0000
  C   C14       1.0  0.3389703798651284  0.9224073701050385  0.0708572159228325  1.0000
  C   C15       1.0  0.16102961973899965  0.4224073699137245  0.4291427841603246  1.0000
  C   C16       1.0  0.8389703804673855  0.4224073699137245  0.07085721617633874  1.0000
  C   C17       1.0  0.4003370387620042  0.8145544333385383  0.5113569056608436  1.0000
  C   C18       1.0  0.5996629610696086  0.8145544333385383  0.9886430943931162  1.0000
  C   C19       1.0  0.9003370393616792  0.3145544331472244  0.5113569055274889  1.0000
  C   C20       1.0  0.09966296127809432  0.3145544331472244  0.9886430941686073  1.0000
  C   C21       1.0  0.5996629612544125  0.18544556704408954  0.488643094147607  1.0000
  C   C22       1.0  0.40033703894939043  0.18544556704408954  0.011356905802195394  1.0000
  C   C23       1.0  0.0996629606547376  0.6854455672354035  0.4886430942809617  1.0000
  C   C24       1.0  0.9003370387383224  0.6854455672354035  0.011356905639843276  1.0000
  C   C25       1.0  0.39982532881448984  0.8602038132682445  0.301664767616448  1.0000
  C   C26       1.0  0.6001746713918953  0.8602038132682445  0.1983352327202153  1.0000
  C   C27       1.0  0.8998253286034218  0.36020381307693045  0.3016647674540959  1.0000
  C   C28       1.0  0.10017467160038108  0.36020381307693045  0.19833523249570645  1.0000
  C   C29       1.0  0.6001746712045091  0.13979618711438346  0.6983352325788635  1.0000
  C   C30       1.0  0.3998253286271037  0.13979618711438346  0.8016647674750963  1.0000
  C   C31       1.0  0.10017467141299485  0.6397961857302348  0.6983352323543546  1.0000
  C   C32       1.0  0.8998253284160357  0.6397961857302348  0.8016647673127439  1.0000
  C   C33       1.0  0.288234116428677  0.8597503037418012  0.3053394808030759  1.0000
  C   C34       1.0  0.7117658829643829  0.8597503037418012  0.19466051911772908  1.0000
  C   C35       1.0  0.7882341170283519  0.3597503035504873  0.30533948066972116  1.0000
  C   C36       1.0  0.211765883175451  0.3597503035504873  0.19466051928008116  1.0000
  C   C37       1.0  0.7117658835903219  0.14024969664082662  0.6946605193922355  1.0000
  C   C38       1.0  0.2882341170520338  0.14024969664082662  0.8053394806907215  1.0000
  C   C39       1.0  0.21176588298806476  0.6402496968321405  0.6946605191387294  1.0000
  C   C40       1.0  0.7882341168435479  0.6402496968321405  0.8053394809152303  1.0000
  C   C41       1.0  0.4409428581390911  0.8763830852067018  0.2528281648445194  1.0000
  C   C42       1.0  0.5590571420647118  0.8763830852067018  0.2471718351052829  1.0000
  C   C43       1.0  0.940942857928023  0.3763830850153879  0.2528281646821673  1.0000
  C   C44       1.0  0.05905714227577983  0.3763830850153879  0.24717183526763506  1.0000
  C   C45       1.0  0.5590571418799078  0.12361691517592605  0.7471718353507922  1.0000
  C   C46       1.0  0.4409428579517049  0.12361691517592605  0.7528281647031676  1.0000
  C   C47       1.0  0.059057142088393626  0.6236169153672401  0.7471718351262833  1.0000
  C   C48       1.0  0.9409428577432191  0.6236169153672401  0.7528281649276765  1.0000
  C   C49       1.0  0.26629455524805085  0.8814527191924019  0.2130680447481628  1.0000
  C   C50       1.0  0.7337054449583342  0.8814527191924019  0.28693195558850054  1.0000
  C   C51       1.0  0.7662945550369827  0.3814527190010879  0.21306804458581066  1.0000
  C   C52       1.0  0.23370544435607718  0.3814527190010879  0.28693195533499427  1.0000
  C   C53       1.0  0.7337054447709481  0.118547281190226  0.7869319554471488  1.0000
  C   C54       1.0  0.26629455506066463  0.118547281190226  0.7130680446068111  1.0000
  C   C55       1.0  0.23370544498201612  0.6185472813815399  0.7869319556095009  1.0000
  C   C56       1.0  0.7662945548495966  0.6185472813815399  0.7130680444444588  1.0000
  C   C57       1.0  0.21961232761757082  0.8687603950970954  0.26015009970571334  1.0000
  C   C58       1.0  0.7803876717754892  0.8687603950970954  0.2398499002150916  1.0000
  C   C59       1.0  0.7196123282172456  0.36876039490578144  0.26015009957235863  1.0000
  C   C60       1.0  0.2803876719865572  0.36876039490578144  0.23984990037744375  1.0000
  C   C61       1.0  0.780387672401428  0.13123960371006985  0.7398499004895983  1.0000
  C   C62       1.0  0.21961232824092755  0.13123960371006985  0.7601500995933589  1.0000
  C   C63       1.0  0.28038767179917096  0.6312396039013839  0.7398499002360919  1.0000
  C   C64       1.0  0.7196123280324417  0.6312396039013839  0.7601500998178677  1.0000
  N   N1        1.0  0.3464629600830898  0.9958932419024766  0.5220910874303729  1.0000
  N   N2        1.0  0.6535370397485228  0.9958932419024766  0.9779089126235867  1.0000
  N   N3        1.0  0.846462959874604  0.49589324171116267  0.5220910876548819  1.0000
  N   N4        1.0  0.15353703995700874  0.49589324171116267  0.977908912399078  1.0000
  N   N5        1.0  0.6535370399333269  0.004106758480151243  0.4779089123780776  1.0000
  N   N6        1.0  0.34646296027047596  0.004106758480151243  0.02209108757172474  1.0000
  N   N7        1.0  0.15353704014439495  0.5041067586714651  0.4779089125404297  1.0000
  N   N8        1.0  0.846462960059408  0.5041067586714651  0.022091087409372625  1.0000
  N   N9        1.0  0.39041477736405067  0.965594119164886  0.6106374051242658  1.0000
  N   N10       1.0  0.6095852224675621  0.965594119164886  0.8893625949296939  1.0000
  N   N11       1.0  0.8904147779637255  0.4655941189735721  0.610637404990911  1.0000
  N   N12       1.0  0.10958522267604785  0.4655941189735721  0.889362594705185  1.0000
  N   N13       1.0  0.609585222652366  0.03440588121774184  0.38936259468418477  1.0000
  N   N14       1.0  0.39041477755143683  0.03440588121774184  0.11063740526561755  1.0000
  N   N15       1.0  0.10958522205269111  0.5344058814090558  0.3893625948175395  1.0000
  N   N16       1.0  0.8904147773403689  0.5344058814090558  0.11063740510326543  1.0000
  N   N17       1.0  0.44943236478122756  0.7149447771726548  0.5536771407596923  1.0000
  N   N18       1.0  0.5505676350503853  0.7149447771726548  0.9463228592942674  1.0000
  N   N19       1.0  0.9494323645701594  0.21494477698134098  0.5536771405973402  1.0000
  N   N20       1.0  0.05056763525887101  0.21494477698134098  0.9463228590697585  1.0000
  N   N21       1.0  0.5505676352377714  0.28505522163451036  0.4463228594356192  1.0000
  N   N22       1.0  0.4494323649686137  0.28505522163451036  0.05367714090104411  1.0000
  N   N23       1.0  0.05056763544625722  0.7850552218258242  0.4463228592111103  1.0000
  N   N24       1.0  0.9494323647575457  0.7850552218258242  0.05367714073869199  1.0000
  N   N25       1.0  0.3735185542050019  0.8887941419557616  0.20911449373383745  1.0000
  N   N26       1.0  0.6264814459988011  0.8887941419557616  0.2908855062159649  1.0000
  N   N27       1.0  0.8735185539939339  0.3887941433399103  0.2091144935714853  1.0000
  N   N28       1.0  0.12648144539912617  0.3887941433399103  0.29088550634931964  1.0000
  N   N29       1.0  0.6264814458139971  0.11120585685140368  0.790885506461474  1.0000
  N   N30       1.0  0.3735185540176157  0.11120585685140368  0.7091144935924857  1.0000
  N   N31       1.0  0.12648144602248287  0.6112058570427177  0.7908855062369652  1.0000
  N   N32       1.0  0.8735185538091299  0.6112058570427177  0.7091144938169943  1.0000
  S   S1        1.0  0.27043596572354583  0.29655925145337053  0.581107703908133  1.0000
  S   S2        1.0  0.7295640341080669  0.29655925145337053  0.9188922961458266  1.0000
  S   S3        1.0  0.7704359655124778  0.7965592516446844  0.581107703745781  1.0000
  S   S4        1.0  0.22956403431655267  0.7965592516446844  0.9188922959213177  1.0000
  S   S5        1.0  0.729564034292871  0.7034407473537947  0.41889229590031746  1.0000
  S   S6        1.0  0.2704359659109321  0.7034407473537947  0.08110770404948489  1.0000
  S   S7        1.0  0.22956403450393886  0.20344074873794343  0.4188922960626696  1.0000
  S   S8        1.0  0.7704359656998642  0.20344074873794343  0.08110770388713276  1.0000
  S   S9        1.0  0.40471218114671687  0.7227755717186758  0.45124505366688056  1.0000
  S   S10       1.0  0.5952878190596683  0.7227755717186758  0.048754946669782716  1.0000
  S   S11       1.0  0.9047121809356486  0.2227755715273619  0.4512450535045284  1.0000
  S   S12       1.0  0.0952878192681541  0.2227755715273619  0.04875494644527388  1.0000
  S   S13       1.0  0.5952878188722821  0.277224428663952  0.5487549465284309  1.0000
  S   S14       1.0  0.4047121809593306  0.277224428663952  0.9512450535255287  1.0000
  S   S15       1.0  0.0952878190807679  0.777224428855266  0.5487549463039222  1.0000
  S   S16       1.0  0.9047121807482625  0.777224428855266  0.9512450533631767  1.0000
  S   S17       1.0  0.5005169954727627  0.6401880064412988  0.6531372017947401  1.0000
  S   S18       1.0  0.49948300435884996  0.6401880064412988  0.8468627982592196  1.0000
  S   S19       1.0  0.0005169956838307681  0.14018800624998484  0.6531372019570922  1.0000
  S   S20       1.0  0.9994830049585249  0.14018800624998484  0.846862798125865  1.0000
  S   S21       1.0  0.49948300454365396  0.3598119939413291  0.3468627980137105  1.0000
  S   S22       1.0  0.5005169956601491  0.3598119939413291  0.15313720193609187  1.0000
  S   S23       1.0  0.9994830043351681  0.8598119941326431  0.3468627982382193  1.0000
  S   S24       1.0  0.0005169950604740519  0.8598119941326431  0.15313720206944662  1.0000
