data_image0
_chemical_formula_structural       H104C88N40O8S24
_chemical_formula_sum              "H104 C88 N40 O8 S24"
_cell_length_a       24.475602948578977
_cell_length_b       8.893760053991263
_cell_length_c       13.20998582452226
_cell_angle_alpha    90.0
_cell_angle_beta     93.40694718152622
_cell_angle_gamma    90.0

_space_group_name_H-M_alt    "P 1"
_space_group_IT_number       1

loop_
  _space_group_symop_operation_xyz
  'x, y, z'

loop_
  _atom_site_type_symbol
  _atom_site_label
  _atom_site_symmetry_multiplicity
  _atom_site_fract_x
  _atom_site_fract_y
  _atom_site_fract_z
  _atom_site_occupancy
  H   H1        1.0  0.9755204405789379  0.12894005831485933  0.3395809619354898  1.0000
  H   H2        1.0  0.024479559412388496  0.6289400575282819  0.16041903757202716  1.0000
  H   H3        1.0  0.024479559567535458  0.8710599423607533  0.6604190377693038  1.0000
  H   H4        1.0  0.9755204403247916  0.37105994202294695  0.8395809620885093  1.0000
  H   H5        1.0  0.09501934987438408  0.8316325069598359  0.44928759298963444  1.0000
  H   H6        1.0  0.9049806501173799  0.33163250662202964  0.05071240727493345  1.0000
  H   H7        1.0  0.9049806502720893  0.1683674925913929  0.5507124067151591  1.0000
  H   H8        1.0  0.09501935002953103  0.6683674929291993  0.9492875931869109  1.0000
  H   H9        1.0  0.12568521836635002  0.29278709614291987  0.44476735446732235  1.0000
  H   H10       1.0  0.874314781625414  0.7927870953563424  0.05523264579724554  1.0000
  H   H11       1.0  0.8743147817801233  0.7072129045326928  0.5552326452374713  1.0000
  H   H12       1.0  0.12568521811220373  0.2072129041948865  0.9447673546203417  1.0000
  H   H13       1.0  0.09180348211942653  0.38932530099528606  0.1963985656931925  1.0000
  H   H14       1.0  0.9081965178723375  0.8893253002087086  0.30360143457137534  1.0000
  H   H15       1.0  0.9081965176181912  0.6106746996803266  0.8036014347243947  1.0000
  H   H16       1.0  0.0918034822745735  0.11067469934252029  0.696398565890469  1.0000
  H   H17       1.0  0.25025663483401367  0.23480638529963782  0.2377302929374143  1.0000
  H   H18       1.0  0.7497433651573128  0.7348063845130602  0.2622697065701028  1.0000
  H   H19       1.0  0.7497433653124598  0.765193615375975  0.7622697067673794  1.0000
  H   H20       1.0  0.25025663457986735  0.2651936150381685  0.7377302930904338  1.0000
  H   H21       1.0  0.218276970412547  0.693785392515837  0.24748246689466852  1.0000
  H   H22       1.0  0.7817230295787793  0.19378539330241448  0.2525175326128485  1.0000
  H   H23       1.0  0.7817230297339263  0.30621460703539183  0.752517532810125  1.0000
  H   H24       1.0  0.21827697015840072  0.8062146073731982  0.7474824670476881  1.0000
  H   H25       1.0  0.18341177455739882  0.7550564529775425  0.5310519190127116  1.0000
  H   H26       1.0  0.8165882253349283  0.2550564526397362  0.9689480808451014  1.0000
  H   H27       1.0  0.8165882251797812  0.24494354769807014  0.46894808064782495  1.0000
  H   H28       1.0  0.18341177481154508  0.7449435469114927  0.03105191885969209  1.0000
  H   H29       1.0  0.36464632134756664  0.7637631540274825  0.5578445762674316  1.0000
  H   H30       1.0  0.6353536789544912  0.2637631536896762  0.9421554243916893  1.0000
  H   H31       1.0  0.6353536787993443  0.2362368466481302  0.4421554241944129  1.0000
  H   H32       1.0  0.3646463211924196  0.7362368458615527  0.05784457607015496  1.0000
  H   H33       1.0  0.25885022533134416  0.2963112512595102  0.48321264575582085  1.0000
  H   H34       1.0  0.7411497746599822  0.7963112515973165  0.01678735375169618  1.0000
  H   H35       1.0  0.7411497744058358  0.7036887482917187  0.5167873539047156  1.0000
  H   H36       1.0  0.25885022548649106  0.20368874907829618  0.9832126459530973  1.0000
  H   H37       1.0  0.35990975873659375  0.28359872255245777  0.5130952462246248  1.0000
  H   H38       1.0  0.6400902411561709  0.7835987228902641  0.9869047543902391  1.0000
  H   H39       1.0  0.6400902414103171  0.7164012769987711  0.4869047542372196  1.0000
  H   H40       1.0  0.3599097585814468  0.21640127778534857  0.013095246027348297  1.0000
  H   H41       1.0  0.08794895435745838  0.6392227882793727  0.5527354553622267  1.0000
  H   H42       1.0  0.9120510455348686  0.1392227890659503  0.9472645444955864  1.0000
  H   H43       1.0  0.9120510453797217  0.3607772112718561  0.44726454429830975  1.0000
  H   H44       1.0  0.08794895461160468  0.8607772116096625  0.05273545520920723  1.0000
  H   H45       1.0  0.0982235396747659  0.5824912296430939  0.4365797315029255  1.0000
  H   H46       1.0  0.9017764603169981  0.08249122930528757  0.06342026876164238  1.0000
  H   H47       1.0  0.9017764604721451  0.41750877103251877  0.5634202689589188  1.0000
  H   H48       1.0  0.0982235394206196  0.9175087702459412  0.936579731655945  1.0000
  H   H49       1.0  0.4431743771445462  0.5099707550536595  0.636103898193172  1.0000
  H   H50       1.0  0.5568256231575117  0.009970754715853179  0.8638961024659488  1.0000
  H   H51       1.0  0.5568256230023647  0.4900292444975693  0.3638961022686723  1.0000
  H   H52       1.0  0.44317437698939927  0.9900292448353757  0.13610389799589553  1.0000
  H   H53       1.0  0.26529366130873966  0.7767242097901988  0.5294716110228815  1.0000
  H   H54       1.0  0.7347063385835874  0.2767242094523925  0.9705283888349315  1.0000
  H   H55       1.0  0.7347063384284405  0.22327579088541383  0.470528388637655  1.0000
  H   H56       1.0  0.2652936615628859  0.7232757912232202  0.029471610869862063  1.0000
  H   H57       1.0  0.44791974190358796  0.4178861198680649  0.5175316578247776  1.0000
  H   H58       1.0  0.552080257988739  0.9178861202058711  0.9824683420330355  1.0000
  H   H59       1.0  0.5520802578335922  0.582113879683164  0.482468341835759  1.0000
  H   H60       1.0  0.4479197421577342  0.08211387934535765  0.017531657671758103  1.0000
  H   H61       1.0  0.4500218479902923  0.6182101739446592  0.5246245869061242  1.0000
  H   H62       1.0  0.5499781523117656  0.11821017360685282  0.9753754137529967  1.0000
  H   H63       1.0  0.5499781521566187  0.3817898267309535  0.47537541355572016  1.0000
  H   H64       1.0  0.45002184783514526  0.881789825944376  0.02462458670884771  1.0000
  H   H65       1.0  0.4901601337064348  0.7438953805630182  0.36478314473292267  1.0000
  H   H66       1.0  0.5098398666941848  0.24389538134959574  0.13521685481885146  1.0000
  H   H67       1.0  0.5098398664400385  0.25610461898821063  0.6352168549718709  1.0000
  H   H68       1.0  0.4901601334522885  0.756104619326017  0.8647831448859421  1.0000
  H   H69       1.0  0.3903525565647634  0.7423690261395134  0.3368730580884102  1.0000
  H   H70       1.0  0.609647443426563  0.24236902580170708  0.16312694141910677  1.0000
  H   H71       1.0  0.60964744358171  0.2576309734117154  0.6631269416163833  1.0000
  H   H72       1.0  0.3903525567199103  0.7576309737495218  0.8368730582856868  1.0000
  H   H73       1.0  0.4916595534373099  0.22684616155060283  0.3429461475539935  1.0000
  H   H74       1.0  0.508340446554454  0.7268461618884092  0.15705385271057434  1.0000
  H   H75       1.0  0.5083404463003077  0.773153838000626  0.6570538528635939  1.0000
  H   H76       1.0  0.4916595535920193  0.2731538387872035  0.8429461469942192  1.0000
  H   H77       1.0  0.3111462997158007  0.7601085344062332  0.29232477096536863  1.0000
  H   H78       1.0  0.6888537002759634  0.2601085340684268  0.20767522929919924  1.0000
  H   H79       1.0  0.68885370043111  0.2398914651449957  0.7076752294964758  1.0000
  H   H80       1.0  0.31114629946121686  0.739891465482802  0.7923247703613372  1.0000
  H   H81       1.0  0.2283622655955826  0.9414904021659842  0.21565993153080754  1.0000
  H   H82       1.0  0.7716377343961813  0.44149040182817795  0.28434006873376033  1.0000
  H   H83       1.0  0.7716377345513284  0.058509598509628426  0.7843400689310368  1.0000
  H   H84       1.0  0.22836226534143633  0.5585095977230509  0.7156599316838269  1.0000
  H   H85       1.0  0.5706983825682871  0.995729702200115  0.45763872688425494  1.0000
  H   H86       1.0  0.4293016174230393  0.4957297018623088  0.04236127262326209  1.0000
  H   H87       1.0  0.4293016175781863  0.00427029735111373  0.5423612728205387  1.0000
  H   H88       1.0  0.5706983823141408  0.5042702976889201  0.9576387270372745  1.0000
  H   H89       1.0  0.3898023459172214  0.2256545406910718  0.31210701727700596  1.0000
  H   H90       1.0  0.610197654074105  0.7256545410288782  0.1878929822305111  1.0000
  H   H91       1.0  0.6101976542292519  0.774345458860157  0.6878929824277876  1.0000
  H   H92       1.0  0.38980234607236836  0.2743454596467346  0.8121070174742824  1.0000
  H   H93       1.0  0.21696324232404368  0.9056273849422555  0.33363191594190295  1.0000
  H   H94       1.0  0.7830367576677203  0.4056273846044491  0.16636808432266495  1.0000
  H   H95       1.0  0.7830367578224297  0.09437261573335723  0.6663680837628906  1.0000
  H   H96       1.0  0.21696324206989737  0.5943726149467797  0.8336319160949224  1.0000
  H   H97       1.0  0.5777301106617914  0.8805979329839578  0.34968569036820624  1.0000
  H   H98       1.0  0.42226988932997267  0.38059793264615155  0.15031430989636158  1.0000
  H   H99       1.0  0.422269889484682  0.11940206769165478  0.6503143093365873  1.0000
  H   H100      1.0  0.5777301104076451  0.6194020669050774  0.8496856905212257  1.0000
  H   H101      1.0  0.5783504621684383  0.07985276257608126  0.33758523597231976  1.0000
  H   H102      1.0  0.4216495378233257  0.5798527629138875  0.16241476429224808  1.0000
  H   H103      1.0  0.42164953797847265  0.9201472369751476  0.6624147644895246  1.0000
  H   H104      1.0  0.5783504619142921  0.4201472377617251  0.8375852361253393  1.0000
  C   C1        1.0  0.030375822667486275  0.9644243568445192  0.3901800985871539  1.0000
  C   C2        1.0  0.9696241773242776  0.4644243565067128  0.10981990167741394  1.0000
  C   C3        1.0  0.9696241774794246  0.03557564383109349  0.6098199018746905  1.0000
  C   C4        1.0  0.030375822412902403  0.535575643044516  0.8901800979831226  1.0000
  C   C5        1.0  0.046294207756406136  0.23377644296429345  0.3968300358557885  1.0000
  C   C6        1.0  0.9537057922353578  0.733776442177716  0.10316996440877936  1.0000
  C   C7        1.0  0.9537057923905047  0.7662235577113192  0.6031699646060559  1.0000
  C   C8        1.0  0.04629420791155309  0.2662235573735129  0.896830036053065  1.0000
  C   C9        1.0  0.11964971887629  0.0598098213546118  0.44551367972265493  1.0000
  C   C10       1.0  0.8803502811154739  0.5598098216924182  0.05448632054191294  1.0000
  C   C11       1.0  0.8803502808613276  0.9401901781966171  0.5544863206949324  1.0000
  C   C12       1.0  0.11964971903143698  0.4401901778588107  0.9455136799199314  1.0000
  C   C13       1.0  0.1495855490046726  0.5557934844196389  0.22559806296645404  1.0000
  C   C14       1.0  0.8504144509870915  0.05579348408183258  0.2744019372981138  1.0000
  C   C15       1.0  0.8504144507329451  0.44420651513158993  0.7744019374511333  1.0000
  C   C16       1.0  0.149585549159382  0.9442065154693963  0.7255980624066798  1.0000
  C   C17       1.0  0.2431651282366498  0.4668525657083214  0.23542212331908635  1.0000
  C   C18       1.0  0.7568348717551142  0.9668525660461278  0.26457787694548146  1.0000
  C   C19       1.0  0.7568348719098237  0.5331474338429075  0.7645778763857073  1.0000
  C   C20       1.0  0.24316512798250348  0.033147433505101125  0.7354221234721058  1.0000
  C   C21       1.0  0.16811590985635239  0.2890654598722015  0.21256269966264696  1.0000
  C   C22       1.0  0.8318840901354116  0.789065459085624  0.2874373006019209  1.0000
  C   C23       1.0  0.8318840898808277  0.7109345408034112  0.7874372999978896  1.0000
  C   C24       1.0  0.1681159100114993  0.21093454046560484  0.7125626998599234  1.0000
  C   C25       1.0  0.1947500378572809  0.5338744739205289  0.4839625826216231  1.0000
  C   C26       1.0  0.8052499621344831  0.03387447470710637  0.016037417642944734  1.0000
  C   C27       1.0  0.80524996228963  0.4661255256307  0.5160374178402213  1.0000
  C   C28       1.0  0.19475003760269705  0.9661255259685063  0.9839625820175918  1.0000
  C   C29       1.0  0.2549389666212104  0.5358907887177728  0.5050503506085237  1.0000
  C   C30       1.0  0.7450610336804098  0.035890789504350346  0.9949496492935463  1.0000
  C   C31       1.0  0.7450610335257005  0.464109210833456  0.4949496498533207  1.0000
  C   C32       1.0  0.2549389664660635  0.9641092111712624  0.005050350411247145  1.0000
  C   C33       1.0  0.2851384669378844  0.6671270962990867  0.5267844163938082  1.0000
  C   C34       1.0  0.7148615329544427  0.1671270959612804  0.9732155834640048  1.0000
  C   C35       1.0  0.7148615332090265  0.332872904376526  0.4732155840680361  1.0000
  C   C36       1.0  0.2851384671920307  0.8328729035899485  0.02678441624078878  1.0000
  C   C37       1.0  0.34180094766855224  0.66015978105516  0.5424715933939173  1.0000
  C   C38       1.0  0.6581990526330681  0.1601597818417375  0.9575284065081529  1.0000
  C   C39       1.0  0.658199052477921  0.3398402184960689  0.4575284063108763  1.0000
  C   C40       1.0  0.34180094751340534  0.8398402188338752  0.04247159319664073  1.0000
  C   C41       1.0  0.28251404707112454  0.3978785697520546  0.5007344362129628  1.0000
  C   C42       1.0  0.7174859528212025  0.8978785700898609  0.9992655636448503  1.0000
  C   C43       1.0  0.7174859530757864  0.6021214297991743  0.4992655642488816  1.0000
  C   C44       1.0  0.28251404691597753  0.10212142946136787  0.0007344360156862263  1.0000
  C   C45       1.0  0.36976258480128316  0.5227565935864821  0.537726027095811  1.0000
  C   C46       1.0  0.6302374155003372  0.02275659324867579  0.962273972806259  1.0000
  C   C47       1.0  0.6302374153451902  0.47724340596474674  0.4622739726089825  1.0000
  C   C48       1.0  0.36976258464657374  0.977243406302553  0.037726027655585304  1.0000
  C   C49       1.0  0.33909792427966895  0.3918177777278972  0.5174207429940909  1.0000
  C   C50       1.0  0.6609020756126581  0.8918177780657036  0.982579256863722  1.0000
  C   C51       1.0  0.6609020754575112  0.6081822218233316  0.48257925666644563  1.0000
  C   C52       1.0  0.33909792453425286  0.1081822226099091  0.017420743598122256  1.0000
  C   C53       1.0  0.43101138223950325  0.5167974728458438  0.5545519437730041  1.0000
  C   C54       1.0  0.5689886176532614  0.01679747250803746  0.9454480568418596  1.0000
  C   C55       1.0  0.5689886174981144  0.48320252670538505  0.44544805664458315  1.0000
  C   C56       1.0  0.4310113824936495  0.9832025270431914  0.05455194361998467  1.0000
  C   C57       1.0  0.32277341568587076  0.9950589487770652  0.3005754716299222  1.0000
  C   C58       1.0  0.6772265843058932  0.4950589484392588  0.1994245286346457  1.0000
  C   C59       1.0  0.6772265844610402  0.004941050774163732  0.6994245288319223  1.0000
  C   C60       1.0  0.3227734158410177  0.5049410511119701  0.8005754718271987  1.0000
  C   C61       1.0  0.38315387576535276  0.985427033874936  0.3215991186482665  1.0000
  C   C62       1.0  0.6168461242259736  0.48542703353712957  0.17840088085925052  1.0000
  C   C63       1.0  0.6168461243811205  0.01457296680067678  0.6784008810565271  1.0000
  C   C64       1.0  0.3831538755112065  0.5145729671384831  0.821599118801286  1.0000
  C   C65       1.0  0.468521716993542  0.8505243085128358  0.35409123297594025  1.0000
  C   C66       1.0  0.5314782829977844  0.3505243092994133  0.1459087665315768  1.0000
  C   C67       1.0  0.5314782827436381  0.14947569103839306  0.6459087666845963  1.0000
  C   C68       1.0  0.4685217171486889  0.6494756913761994  0.8540912331732167  1.0000
  C   C69       1.0  0.41256515887393036  0.12102764449069513  0.3244636379026396  1.0000
  C   C70       1.0  0.5874348411178336  0.6210276437041177  0.1755363623619283  1.0000
  C   C71       1.0  0.5874348408632497  0.8789723561849175  0.675536361757897  1.0000
  C   C72       1.0  0.41256515902907737  0.37897235584711125  0.8244636380999161  1.0000
  C   C73       1.0  0.41176134251567253  0.8499427603297725  0.33729558091570705  1.0000
  C   C74       1.0  0.5882386574760914  0.3499427599919661  0.16270441934886076  1.0000
  C   C75       1.0  0.5882386576312383  0.15005723922145642  0.6627044195461373  1.0000
  C   C76       1.0  0.411761342670382  0.6500572395592628  0.8372955803559329  1.0000
  C   C77       1.0  0.49837375731402767  0.9854449835384114  0.35664007099625933  1.0000
  C   C78       1.0  0.5016262426777363  0.4854449832006049  0.14335992926830854  1.0000
  C   C79       1.0  0.5016262428328833  0.014555017137201389  0.6433599294655851  1.0000
  C   C80       1.0  0.49837375705988135  0.5145550174750078  0.8566400711492788  1.0000
  C   C81       1.0  0.4692561075590949  0.12059491525394526  0.34185606173713856  1.0000
  C   C82       1.0  0.5307438924326691  0.6205949144673678  0.15814393852742928  1.0000
  C   C83       1.0  0.530743892587816  0.8794050854216674  0.6581439387247059  1.0000
  C   C84       1.0  0.4692561077138044  0.37940508508386106  0.8418560611773642  1.0000
  C   C85       1.0  0.559451807704423  0.9852114838726463  0.3758427209430146  1.0000
  C   C86       1.0  0.4405481922873409  0.48521148353484006  0.1241572793215533  1.0000
  C   C87       1.0  0.4405481920331946  0.014788516802966271  0.6241572794745728  1.0000
  C   C88       1.0  0.5594518078591325  0.5147885160163889  0.8758427203832403  1.0000
  N   N1        1.0  0.09916009527414117  0.20169208176411213  0.43168502294960087  1.0000
  N   N2        1.0  0.9008399047176228  0.7016920821019185  0.06831497731496702  1.0000
  N   N3        1.0  0.9008399048727698  0.7983079177871167  0.5683149775122435  1.0000
  N   N4        1.0  0.09916009542885056  0.29830791857369426  0.9316850223898264  1.0000
  N   N5        1.0  0.014940631644436634  0.10990229150170867  0.3708604587694649  1.0000
  N   N6        1.0  0.9850593683473273  0.6099022907151312  0.12913954149510298  1.0000
  N   N7        1.0  0.9850593685024742  0.890097709173904  0.6291395416923796  1.0000
  N   N8        1.0  0.01494063138985276  0.3900977088360977  0.8708604581654336  1.0000
  N   N9        1.0  0.08319142129186208  0.9456617953421865  0.4283061832124504  1.0000
  N   N10       1.0  0.9168085786999017  0.44566179500438025  0.07169381705211743  1.0000
  N   N11       1.0  0.9168085784457555  0.054338204209042264  0.5716938172051369  1.0000
  N   N12       1.0  0.08319142144700903  0.5543382045468486  0.928306183409727  1.0000
  N   N13       1.0  0.13333860550772453  0.4101567905874587  0.2125401043383816  1.0000
  N   N14       1.0  0.8666613944840394  0.9101567898008812  0.28745989592618626  1.0000
  N   N15       1.0  0.8666613946391862  0.5898432100881539  0.7874598961234628  1.0000
  N   N16       1.0  0.13333860525314067  0.08984320975034761  0.7125401037343504  1.0000
  N   N17       1.0  0.2227135638578915  0.3235156584541275  0.22760113227829595  1.0000
  N   N18       1.0  0.7772864361334348  0.8235156587919339  0.2723988672292211  1.0000
  N   N19       1.0  0.7772864362885817  0.6764843410971013  0.7723988674264977  1.0000
  N   N20       1.0  0.22271356360374525  0.176484340759295  0.7276011324313155  1.0000
  N   N21       1.0  0.20476248499472408  0.5784689938527382  0.23665358718452745  1.0000
  N   N22       1.0  0.7952375149970399  0.0784689935149318  0.26334641308004036  1.0000
  N   N23       1.0  0.7952375147428936  0.42153100682287453  0.7633464132330599  1.0000
  N   N24       1.0  0.2047624851494335  0.921531006036297  0.7366535866247531  1.0000
  N   N25       1.0  0.16569419859608125  0.6529249287981415  0.5146697632502036  1.0000
  N   N26       1.0  0.8343058012962459  0.15292492958471893  0.9853302366076093  1.0000
  N   N27       1.0  0.8343058015508297  0.3470750707530874  0.48533023721164065  1.0000
  N   N28       1.0  0.1656941984409343  0.8470750710908937  0.014669763052927207  1.0000
  N   N29       1.0  0.10922370632514809  0.6634015629140108  0.4898791342147356  1.0000
  N   N30       1.0  0.8907762936661783  0.16340156257620436  0.010120865292781441  1.0000
  N   N31       1.0  0.890776293412032  0.33659843663721817  0.5101208654458008  1.0000
  N   N32       1.0  0.10922370648029506  0.8365984369750245  0.989879134412012  1.0000
  N   N33       1.0  0.23743088990752567  0.8653661424726763  0.2729467756409377  1.0000
  N   N34       1.0  0.7625691100838007  0.3653661432592537  0.22705322386657928  1.0000
  N   N35       1.0  0.7625691102389477  0.1346338570785526  0.727053224063856  1.0000
  N   N36       1.0  0.2374308900626726  0.6346338574163589  0.7729467758382144  1.0000
  N   N37       1.0  0.29393955799842836  0.8649961482317676  0.29870560538712393  1.0000
  N   N38       1.0  0.7060604419933357  0.3649961490183451  0.20129439487744394  1.0000
  N   N39       1.0  0.706060442148045  0.13500385131946124  0.7012943943176696  1.0000
  N   N40       1.0  0.293939557744282  0.6350038516572676  0.7987056055401434  1.0000
  O   O1        1.0  0.17172209484229764  0.4247033309949595  0.43947285450525037  1.0000
  O   O2        1.0  0.8282779051494664  0.9247033313327658  0.06052714575931748  1.0000
  O   O3        1.0  0.82827790489532  0.5752966696806533  0.560527145912337  1.0000
  O   O4        1.0  0.17172209499700702  0.07529666934284686  0.9394728539454761  1.0000
  O   O5        1.0  0.2998971619250223  0.11918390574572627  0.2866979189886669  1.0000
  O   O6        1.0  0.7001028380667417  0.6191839049591488  0.21330208127590092  1.0000
  O   O7        1.0  0.7001028382214509  0.8808160949298864  0.7133020807161266  1.0000
  O   O8        1.0  0.29989716208016926  0.3808160945920801  0.7866979191859435  1.0000
  S   S1        1.0  0.9890881855408592  0.8181760780396188  0.37016787080460944  1.0000
  S   S2        1.0  0.010911814450904913  0.31817607770181244  0.12983212945995845  1.0000
  S   S3        1.0  0.010911814606051869  0.18182392151161003  0.629832129657235  1.0000
  S   S4        1.0  0.9890881852867128  0.6818239218494164  0.8701678709576289  1.0000
  S   S5        1.0  0.18532840470630224  0.02873143737280446  0.48252833165570536  1.0000
  S   S6        1.0  0.8146715952850242  0.5287314377106108  0.017471667851811677  1.0000
  S   S7        1.0  0.8146715954401712  0.9712685621784243  0.5174716680490882  1.0000
  S   S8        1.0  0.18532840445215595  0.4712685629650019  0.9825283318087248  1.0000
  S   S9        1.0  0.021814223684058925  0.40649870898839424  0.3863105766296546  1.0000
  S   S10       1.0  0.9781857763077051  0.9064987093262007  0.11368942363491326  1.0000
  S   S11       1.0  0.9781857764628519  0.5935012905628346  0.6136894238321897  1.0000
  S   S12       1.0  0.021814223429475053  0.09350129022502825  0.8863105760256232  1.0000
  S   S13       1.0  0.1056174976261145  0.6985872828007941  0.22780447613121718  1.0000
  S   S14       1.0  0.8943825023656495  0.19858728358737157  0.2721955241333507  1.0000
  S   S15       1.0  0.8943825025207965  0.3014127167504348  0.7721955243306273  1.0000
  S   S16       1.0  0.10561749778126146  0.8014127170882411  0.7278044763284937  1.0000
  S   S17       1.0  0.14474112479451554  0.11619751755459437  0.19458061625262868  1.0000
  S   S18       1.0  0.8552588751972485  0.6161975178924007  0.30541938401193913  1.0000
  S   S19       1.0  0.8552588749431023  0.8838024819966345  0.8054193841649587  1.0000
  S   S20       1.0  0.14474112494922492  0.38380248278321194  0.6945806156928545  1.0000
  S   S21       1.0  0.3100200417363949  0.5031860757241423  0.2409034950828124  1.0000
  S   S22       1.0  0.6899799586646623  0.003186075386336012  0.2590965052260125  1.0000
  S   S23       1.0  0.6899799584105161  0.4968139249514703  0.759096505379032  1.0000
  S   S24       1.0  0.31002004148181106  0.9968139252892768  0.740903494478781  1.0000
