data_image0
_chemical_formula_structural       H24C12N24O8
_chemical_formula_sum              "H24 C12 N24 O8"
_cell_length_a       11.055283998937757
_cell_length_b       4.738092813346549
_cell_length_c       12.492879850240902
_cell_angle_alpha    90.0
_cell_angle_beta     109.18354749392883
_cell_angle_gamma    90.0

_space_group_name_H-M_alt    "P 1"
_space_group_IT_number       1

loop_
  _space_group_symop_operation_xyz
  'x, y, z'

loop_
  _atom_site_type_symbol
  _atom_site_label
  _atom_site_symmetry_multiplicity
  _atom_site_fract_x
  _atom_site_fract_y
  _atom_site_fract_z
  _atom_site_occupancy
  H   H1        1.0  0.403571427922411  0.4026656262675572  0.44373283063972857  1.0000
  H   H2        1.0  0.09642857172967685  0.9026656248591267  0.05626716966502804  1.0000
  H   H3        1.0  0.5964285713755414  0.5973343751366895  0.5562671691675359  1.0000
  H   H4        1.0  0.903571428525982  0.09733437443456616  0.9437328304155199  1.0000
  H   H5        1.0  0.6498842119662176  0.9218232508440612  0.33802600850572834  1.0000
  H   H6        1.0  0.8501157885893834  0.42182325014193794  0.16197399171810167  1.0000
  H   H7        1.0  0.3501157882894413  0.07817675056018535  0.6619739915748195  1.0000
  H   H8        1.0  0.1498842116662755  0.5781767491517548  0.8380260083624462  1.0000
  H   H9        1.0  0.4836929316567992  0.8549027825267581  0.28829724100379595  1.0000
  H   H10       1.0  0.016307067989065414  0.3549027839351886  0.211702758498712  1.0000
  H   H11       1.0  0.5163070685988598  0.14509721676693477  0.7117027590767518  1.0000
  H   H12       1.0  0.9836929313088869  0.6450972174690581  0.7882972413085525  1.0000
  H   H13       1.0  0.27526860924404795  0.9843876373341235  0.3817945568293972  1.0000
  H   H14       1.0  0.22473139136574646  0.48438763663200024  0.1182054437486427  1.0000
  H   H15       1.0  0.724731391011611  0.015612364070123072  0.6182054432511507  1.0000
  H   H16       1.0  0.7752686088899126  0.5156123626616925  0.8817945563319052  1.0000
  H   H17       1.0  0.24371497568202236  0.21365515195237228  0.2753284582122595  1.0000
  H   H18       1.0  0.25628502396384223  0.7136551526544956  0.22467154129024847  1.0000
  H   H19       1.0  0.7562850245736366  0.7863448473413206  0.7246715418682884  1.0000
  H   H20       1.0  0.7437149753341102  0.286344848749751  0.775328458517016  1.0000
  H   H21       1.0  0.7680725299135993  0.39239314915125884  0.4692240148450132  1.0000
  H   H22       1.0  0.7319274696842952  0.8923931498533821  0.03077598510553355  1.0000
  H   H23       1.0  0.23192746938435307  0.607606850142434  0.5307759849622512  1.0000
  H   H24       1.0  0.26807253057136365  0.1076068515508645  0.9692240149750143  1.0000
  C   C1        1.0  0.5383839006189278  0.1818342641100529  0.39905962979205944  1.0000
  C   C2        1.0  0.9616160989789667  0.6818342627016224  0.10094037015848728  1.0000
  C   C3        1.0  0.46161609867902464  0.8181657372941937  0.6009403700152051  1.0000
  C   C4        1.0  0.038383901276692084  0.3181657365920704  0.8990596299220606  1.0000
  C   C5        1.0  0.9630456487155232  0.29651554862803464  0.5595911989422075  1.0000
  C   C6        1.0  0.5369543521499301  0.7965155493301579  0.9404088017163802  1.0000
  C   C7        1.0  0.036954351540135794  0.7034844506656582  0.44040880113834024  1.0000
  C   C8        1.0  0.46304564810572874  0.20348444996353487  0.059591198364167625  1.0000
  C   C9        1.0  0.9039773103629414  0.6495875094152331  0.424889542791606  1.0000
  C   C10       1.0  0.59602268922873  0.14958750871310983  0.0751104563566921  1.0000
  C   C11       1.0  0.09602268989271766  0.35041248987845963  0.5751104572889418  1.0000
  C   C12       1.0  0.40397731006299914  0.850412490580583  0.9248895426483237  1.0000
  N   N1        1.0  0.41648840818974414  0.2509434316378884  0.38888907089803304  1.0000
  N   N2        1.0  0.08351159146234378  0.7509434323400117  0.11111092940672357  1.0000
  N   N3        1.0  0.5835115911082084  0.7490565676558044  0.6111109289092316  1.0000
  N   N4        1.0  0.9164884087933151  0.24905656906423496  0.8888890706738243  1.0000
  N   N5        1.0  0.5596295014253394  0.9646118301283083  0.3388764568801589  1.0000
  N   N6        1.0  0.9403704991302616  0.46461182942618506  0.1611235433436712  1.0000
  N   N7        1.0  0.4403704988303195  0.035388171275938296  0.6611235432003889  1.0000
  N   N8        1.0  0.05962950112539727  0.5353881698675077  0.8388764567368766  1.0000
  N   N9        1.0  0.3126464222829626  0.08159971854306554  0.32629895885401605  1.0000
  N   N10       1.0  0.18735357736290198  0.5815997192451889  0.1737010406484919  1.0000
  N   N11       1.0  0.6873535770149899  0.9184002807506273  0.6737010409532486  1.0000
  N   N12       1.0  0.8126464228927568  0.4184002821590578  0.8262989594320559  1.0000
  N   N13       1.0  0.8659440806316031  0.4459867911509912  0.4844526936414201  1.0000
  N   N14       1.0  0.6340559199239979  0.9459867897425608  0.015547306582409935  1.0000
  N   N15       1.0  0.13405591962405575  0.5540132102532555  0.5155473064391277  1.0000
  N   N16       1.0  0.365944080331661  0.05401320955113207  0.9844526934981379  1.0000
  N   N17       1.0  0.9535964837298897  0.088104730414758  0.625410272858913  1.0000
  N   N18       1.0  0.5464035161778571  0.5881047290063275  0.8745897275263914  1.0000
  N   N19       1.0  0.046403516525769184  0.9118952709894886  0.3745897272216349  1.0000
  N   N20       1.0  0.4535964831200954  0.41189527028736533  0.12541027228087304  1.0000
  N   N21       1.0  0.8321279186546903  0.825579646515442  0.3497528753528604  1.0000
  N   N22       1.0  0.6678720819009109  0.32557964581331866  0.15024712487096964  1.0000
  N   N23       1.0  0.16787208160096867  0.17442035488880467  0.6502471247276874  1.0000
  N   N24       1.0  0.33212791835474803  0.6744203534803742  0.8497528752095782  1.0000
  O   O1        1.0  0.629047150825969  0.32673988057793  0.46700607567267527  1.0000
  O   O2        1.0  0.8709528497234088  0.8267398791694995  0.03299392374890612  1.0000
  O   O3        1.0  0.37095284942968987  0.6732601208263166  0.5329939244078725  1.0000
  O   O4        1.0  0.1290471505322502  0.1732601201241933  0.9670060763316418  1.0000
  O   O5        1.0  0.9190191922120352  0.9920587618628828  0.3164445473317483  1.0000
  O   O6        1.0  0.5809808073858594  0.49205876116075936  0.18355545261879844  1.0000
  O   O7        1.0  0.08098080804362372  0.00794123743081011  0.6835554527487994  1.0000
  O   O8        1.0  0.41901919191209297  0.5079412381329335  0.816444547188466  1.0000
