data_image0
_chemical_formula_structural       H30C42N4O6
_chemical_formula_sum              "H30 C42 N4 O6"
_cell_length_a       8.792285141185294
_cell_length_b       8.986986455164118
_cell_length_c       10.74205239075554
_cell_angle_alpha    89.05998266229341
_cell_angle_beta     89.31922382881754
_cell_angle_gamma    86.38136799809801

_space_group_name_H-M_alt    "P 1"
_space_group_IT_number       1

loop_
  _space_group_symop_operation_xyz
  'x, y, z'

loop_
  _atom_site_type_symbol
  _atom_site_label
  _atom_site_symmetry_multiplicity
  _atom_site_fract_x
  _atom_site_fract_y
  _atom_site_fract_z
  _atom_site_occupancy
  H   H1        1.0  0.07356279073065156  0.680130242676362  0.3085781670730882  1.0000
  H   H2        1.0  0.926437209122661  0.31986975739939033  0.691421832545223  1.0000
  H   H3        1.0  0.27401537559091677  0.7252584097063712  0.9237680420873091  1.0000
  H   H4        1.0  0.7259846242586748  0.27474159037206236  0.0762319584619151  1.0000
  H   H5        1.0  0.15408426097891248  0.3382257234165864  0.0041512033999265355  1.0000
  H   H6        1.0  0.8459157388744001  0.661774276659166  0.9958487962183846  1.0000
  H   H7        1.0  0.4568122059114998  0.40452419737917544  0.9495127553933232  1.0000
  H   H8        1.0  0.5431877939380918  0.5954758026992581  0.05048724515590108  1.0000
  H   H9        1.0  0.23762042690334073  0.6543295632182569  0.14207893494347587  1.0000
  H   H10       1.0  0.7623795740869233  0.34567043686465815  0.8579210646665699  1.0000
  H   H11       1.0  0.09266859447731955  0.580412993333211  0.0542933433009723  1.0000
  H   H12       1.0  0.9073314053722721  0.4195870067452227  0.9457066572482519  1.0000
  H   H13       1.0  0.36075806880713435  0.6653232479131562  0.7095878134666209  1.0000
  H   H14       1.0  0.6392419310424572  0.33467675216527726  0.29041218708260336  1.0000
  H   H15       1.0  0.1920367485264848  0.5899525922668142  0.7687400263058342  1.0000
  H   H16       1.0  0.8079632513231069  0.4100474078116193  0.23125997424338998  1.0000
  H   H17       1.0  0.02176796498656474  0.16213225626692063  0.8477632309666401  1.0000
  H   H18       1.0  0.9782320359999783  0.8378677438186755  0.1522367695743188  1.0000
  H   H19       1.0  0.3935100900505061  0.9697462849700098  0.5712259991597163  1.0000
  H   H20       1.0  0.6064899098028065  0.030253715105742637  0.42877400045859504  1.0000
  H   H21       1.0  0.34369920195083864  0.8163094001232316  0.3856469150406742  1.0000
  H   H22       1.0  0.6563007978987531  0.18369059995520196  0.61435308550855  1.0000
  H   H23       1.0  0.912637517202775  0.7335401707037377  0.5164235918223608  1.0000
  H   H24       1.0  0.08736248265053756  0.26645982937201473  0.48357640779595057  1.0000
  H   H25       1.0  0.9431992224270399  0.883230719270466  0.7066508544346141  1.0000
  H   H26       1.0  0.056800777505293304  0.1167692796902325  0.29334914520049016  1.0000
  H   H27       1.0  0.3036981495067912  0.9778819981783541  0.8157113499307522  1.0000
  H   H28       1.0  0.6963018503465213  0.022118001897398466  0.18428864968755918  1.0000
  H   H29       1.0  0.24029772941872937  0.14122910115013682  0.7332853795219273  1.0000
  H   H30       1.0  0.759702270434583  0.8587708989256156  0.2667146200963839  1.0000
  C   C1        1.0  0.41112249482680585  0.9134502247089249  0.14444735080340093  1.0000
  C   C2        1.0  0.5888775050265067  0.0865497753668277  0.8555526488149103  1.0000
  C   C3        1.0  0.3404131871094975  0.04912362632571788  0.13254943183498574  1.0000
  C   C4        1.0  0.659586812743815  0.9508763737500345  0.8674505677833255  1.0000
  C   C5        1.0  0.27530201720658504  0.1731795384973447  0.11547474193611008  1.0000
  C   C6        1.0  0.7246979826430066  0.8268204615810889  0.8845252586131142  1.0000
  C   C7        1.0  0.20583681849212396  0.3144626816946344  0.09506537929343736  1.0000
  C   C8        1.0  0.7941631813611885  0.685537318381118  0.9049346203248738  1.0000
  C   C9        1.0  0.2033821630564817  0.42601523200932195  0.18139495674820746  1.0000
  C   C10       1.0  0.7966178367968307  0.5739847680664304  0.8186050428701039  1.0000
  C   C11       1.0  0.2660835287813109  0.40177464404107155  0.2991627602373045  1.0000
  C   C12       1.0  0.7339164710720016  0.5982253560346809  0.7008372393810068  1.0000
  C   C13       1.0  0.3131248340573406  0.3897116361184259  0.40657600241842357  1.0000
  C   C14       1.0  0.6868751669329233  0.610288363964489  0.5934239971916223  1.0000
  C   C15       1.0  0.3501812859296334  0.3866610555859937  0.5271030516870876  1.0000
  C   C16       1.0  0.6498187139199582  0.61333894449244  0.4728969488621366  1.0000
  C   C17       1.0  0.3755883500886044  0.39157961634682736  0.6394602996163864  1.0000
  C   C18       1.0  0.624411649764708  0.608420383728925  0.3605397000019249  1.0000
  C   C19       1.0  0.3863767109881246  0.43691578989199736  0.7626803896587309  1.0000
  C   C20       1.0  0.6136232888651881  0.563084210183755  0.2373196099595804  1.0000
  C   C21       1.0  0.45376266333967785  0.35432571210414254  0.8576788928752923  1.0000
  C   C22       1.0  0.5462373365136346  0.6456742879716098  0.142321106743019  1.0000
  C   C23       1.0  0.5233798820084179  0.21187610434359908  0.8488291415196969  1.0000
  C   C24       1.0  0.4766201179239153  0.7881238946170993  0.15117085811540706  1.0000
  C   C25       1.0  0.14104640469565163  0.5823104839171814  0.1478918354881419  1.0000
  C   C26       1.0  0.8589535951576608  0.41768951615857103  0.8521081641301695  1.0000
  C   C27       1.0  0.31623476521224686  0.5923875338602117  0.7836428211921216  1.0000
  C   C28       1.0  0.683765235778017  0.4076124662227032  0.21635717841792432  1.0000
  C   C29       1.0  0.28467836415032144  0.9192440939572645  0.5621196481676294  1.0000
  C   C30       1.0  0.7153216356992702  0.08075590612116916  0.43788035238159484  1.0000
  C   C31       1.0  0.25760431631206343  0.8340017436158742  0.45876345276990954  1.0000
  C   C32       1.0  0.7423956835412491  0.16599825645987823  0.5412365468484017  1.0000
  C   C33       1.0  0.017963244595129754  0.7880413069496032  0.5314305027876125  1.0000
  C   C34       1.0  0.9820367552544621  0.21195869312883048  0.4685694977616117  1.0000
  C   C35       1.0  0.03547337381785992  0.8714337054593937  0.6382173302104462  1.0000
  C   C36       1.0  0.9645266260317317  0.12856629461903984  0.361782670338778  1.0000
  C   C37       1.0  0.17188836707586483  0.9395781602624141  0.654709823446807  1.0000
  C   C38       1.0  0.8281116327774476  0.06042183981333841  0.3452901761715044  1.0000
  C   C39       1.0  0.20552134741160608  0.03193426626113046  0.7663400705811891  1.0000
  C   C40       1.0  0.7944786524379854  0.9680657338173032  0.2336599299680351  1.0000
  C   C41       1.0  0.05943453205462837  0.9693248975932662  0.9525194943213298  1.0000
  C   C42       1.0  0.9405654689319146  0.030675102492329735  0.04748050621962909  1.0000
  N   N1        1.0  0.12571348296027918  0.7689206775022815  0.442528651689384  1.0000
  N   N2        1.0  0.8742865168930333  0.23107932257347083  0.5574713479289273  1.0000
  N   N3        1.0  0.0822913675664206  0.06018512155525954  0.8550387983852206  1.0000
  N   N4        1.0  0.9177086322831709  0.939814878523174  0.1449612021640038  1.0000
  O   O1        1.0  0.02582346688797473  0.6438944540212077  0.22985395163679248  1.0000
  O   O2        1.0  0.9741765330443585  0.35610554493949076  0.7701460479983118  1.0000
  O   O3        1.0  0.3494150213232445  0.6424799411034446  0.9031839992715464  1.0000
  O   O4        1.0  0.6505849796670193  0.35752005897947026  0.0968160003384996  1.0000
  O   O5        1.0  0.12586682734137802  0.8442815613867795  0.9701377312097229  1.0000
  O   O6        1.0  0.8741331725082137  0.15571843869165414  0.029862269339501257  1.0000
