data_image0
_chemical_formula_structural       H68C72N4O16
_chemical_formula_sum              "H68 C72 N4 O16"
_cell_length_a       10.24721192637844
_cell_length_b       10.298558117551016
_cell_length_c       15.799626446796593
_cell_angle_alpha    79.38386762827488
_cell_angle_beta     84.10467072490776
_cell_angle_gamma    72.35918972179877

_space_group_name_H-M_alt    "P 1"
_space_group_IT_number       1

loop_
  _space_group_symop_operation_xyz
  'x, y, z'

loop_
  _atom_site_type_symbol
  _atom_site_label
  _atom_site_symmetry_multiplicity
  _atom_site_fract_x
  _atom_site_fract_y
  _atom_site_fract_z
  _atom_site_occupancy
  H   H1        1.0  0.5857281561400617  0.6394950310208092  0.13647704574097344  1.0000
  H   H2        1.0  0.4142718443656346  0.3605049690442737  0.8635229546293491  1.0000
  H   H3        1.0  0.6986546701229434  0.6000501750422952  0.2209921803021667  1.0000
  H   H4        1.0  0.30134532939954645  0.39994982502153786  0.7790078195024963  1.0000
  H   H5        1.0  0.641586503954723  0.46668894609457584  0.18961335354524061  1.0000
  H   H6        1.0  0.3584134955677668  0.533311053969257  0.8103866462594225  1.0000
  H   H7        1.0  0.9374006028700637  0.6082320094449107  0.1460224086425582  1.0000
  H   H8        1.0  0.06259939665392678  0.39176799062241674  0.8539775917945059  1.0000
  H   H9        1.0  0.8157215461458982  0.7378118090150458  0.08203726705039363  1.0000
  H   H10       1.0  0.18427845337809196  0.2621881910522817  0.9179627333866704  1.0000
  H   H11       1.0  0.9493621862650745  0.6143169986020169  0.030753517205714728  1.0000
  H   H12       1.0  0.050637813257415246  0.38568300146181606  0.9692464825989483  1.0000
  H   H13       1.0  0.8776729285318047  0.9221063708634001  0.382094169087991  1.0000
  H   H14       1.0  0.12232707099218561  0.07789362920392744  0.6179058313490732  1.0000
  H   H15       1.0  0.7433456011861491  0.940657234477894  0.31558487824780396  1.0000
  H   H16       1.0  0.25665439833634074  0.059342765585939164  0.684415121556859  1.0000
  H   H17       1.0  0.8931745668742611  0.7919024563277288  0.31704164060994944  1.0000
  H   H18       1.0  0.10682543264972905  0.20809754373959877  0.6829583598271146  1.0000
  H   H19       1.0  0.5487868210650761  0.911637528552254  0.4320037470377492  1.0000
  H   H20       1.0  0.4512131784574139  0.08836247151157893  0.5679962527669139  1.0000
  H   H21       1.0  0.6567207696981713  0.9647259382866725  0.4901892069946393  1.0000
  H   H22       1.0  0.3432792298243184  0.035274061777160574  0.5098107928100237  1.0000
  H   H23       1.0  0.6038611299197916  0.8133250621718866  0.5348900882399319  1.0000
  H   H24       1.0  0.3961388696041987  0.18667493789544082  0.46510991219713216  1.0000
  H   H25       1.0  0.9987330483035238  0.2524956068320775  0.5042285504642432  1.0000
  H   H26       1.0  0.0012669522006719775  0.747504393229511  0.4957714492736783  1.0000
  H   H27       1.0  0.8584709094977507  0.7023294112769867  0.8338323715676899  1.0000
  H   H28       1.0  0.14152909002473907  0.2976705887868464  0.16616762823697323  1.0000
  H   H29       1.0  0.9245779802911095  0.37473674406971647  0.28877897000015484  1.0000
  H   H30       1.0  0.07542201923138019  0.6252632559941166  0.7112210298045081  1.0000
  H   H31       1.0  0.8202597629421601  0.5008488722397239  0.3498082404315584  1.0000
  H   H32       1.0  0.17974023658183017  0.4991511278276037  0.6501917600055057  1.0000
  H   H33       1.0  0.15927311708575997  0.717934358221717  0.2415929838589736  1.0000
  H   H34       1.0  0.8407268824382301  0.28206564184561056  0.7584070165780905  1.0000
  H   H35       1.0  0.31958315215009575  0.8542030048822742  0.19484632802010926  1.0000
  H   H36       1.0  0.6804168483556006  0.14579699518280886  0.8051536723502133  1.0000
  H   H37       1.0  0.5641289726077553  0.6392499137300898  0.4124718544788445  1.0000
  H   H38       1.0  0.4358710269147345  0.36075008633374317  0.5875281453258187  1.0000
  H   H39       1.0  0.4015638464220462  0.5002249898192447  0.45896417101085385  1.0000
  H   H40       1.0  0.5984361540821497  0.4997750102423436  0.5410358287270677  1.0000
  H   H41       1.0  0.5334371318553813  0.8767167008083504  0.14598083473511084  1.0000
  H   H42       1.0  0.46656286864881474  0.12328329925323797  0.8540191650028106  1.0000
  H   H43       1.0  0.6174242596064853  0.96982028964956  0.19632737281984508  1.0000
  H   H44       1.0  0.3825757408977107  0.030179710412028403  0.8036726269180764  1.0000
  H   H45       1.0  0.43428409402085755  0.008989365516048866  0.20562316043767057  1.0000
  H   H46       1.0  0.5657159064848388  0.9910106345490342  0.7943768399326518  1.0000
  H   H47       1.0  0.6967928963106926  0.4596491759439116  0.8446408771522486  1.0000
  H   H48       1.0  0.30320710419350344  0.5403508241176768  0.15535912258567292  1.0000
  H   H49       1.0  0.7499395179570522  0.5513165961775045  0.914302920964963  1.0000
  H   H50       1.0  0.2500604815654376  0.44868340388632855  0.08569707883970004  1.0000
  H   H51       1.0  0.4115687226250084  0.9563926951225398  0.9876122563996392  1.0000
  H   H52       1.0  0.5884312778791876  0.04360730493904878  0.012387743338282273  1.0000
  H   H53       1.0  0.25628672814195763  0.14145036658476937  0.06086317328448292  1.0000
  H   H54       1.0  0.7437132723622382  0.8585496334768191  0.9391368264534385  1.0000
  H   H55       1.0  0.9677526053290861  0.9030588178542778  0.12465676619562902  1.0000
  H   H56       1.0  0.03224739419340366  0.09694118220955517  0.875343233609034  1.0000
  H   H57       1.0  0.12339951665051012  0.720279695251462  0.05086981397179314  1.0000
  H   H58       1.0  0.8766004838551862  0.279720304813621  0.9491301863985293  1.0000
  H   H59       1.0  0.8291234675720928  0.10775926451283319  0.14607729076162743  1.0000
  H   H60       1.0  0.1708765319503971  0.8922407355509998  0.8539227090430357  1.0000
  H   H61       1.0  0.8537785036907  0.22275635359429374  0.21079827574030935  1.0000
  H   H62       1.0  0.14622149583178976  0.7772436464695393  0.7892017240643537  1.0000
  H   H63       1.0  0.9322190656488536  0.04061133181164927  0.23888828428539266  1.0000
  H   H64       1.0  0.0677809348553425  0.9593886682499392  0.7611117154525289  1.0000
  H   H65       1.0  0.2004447900161723  0.4519779594593034  0.4410936542215982  1.0000
  H   H66       1.0  0.7995552104880236  0.5480220406022849  0.5589063455163232  1.0000
  H   H67       1.0  0.3110063345011007  0.6522871463346365  0.9551297491446842  1.0000
  H   H68       1.0  0.6889936650228895  0.3477128537326912  0.04487025129237997  1.0000
  C   C1        1.0  0.6736957993738679  0.5598615993797168  0.16708540900803198  1.0000
  C   C2        1.0  0.32630420014862205  0.4401384006841162  0.8329145907966311  1.0000
  C   C3        1.0  0.7888355683879623  0.5367237983240558  0.09962423827719061  1.0000
  C   C4        1.0  0.2111644321162336  0.4632762017375326  0.9003757614607308  1.0000
  C   C5        1.0  0.8791053648772994  0.6294474520490306  0.087609897648181  1.0000
  C   C6        1.0  0.1208946346451903  0.3705525480148023  0.912390102156482  1.0000
  C   C7        1.0  0.8217891796180026  0.8637980632848715  0.3555098404673903  1.0000
  C   C8        1.0  0.17821081990598786  0.1362019367824558  0.6444901599696738  1.0000
  C   C9        1.0  0.7545960083067478  0.7881499980409155  0.42887138308929434  1.0000
  C   C10       1.0  0.24540399121724232  0.21185000202641216  0.5711286173477698  1.0000
  C   C11       1.0  0.6341076453348097  0.8735810270799584  0.47575884121484796  1.0000
  C   C12       1.0  0.36589235418918054  0.12641897298736907  0.5242411592222163  1.0000
  C   C13       1.0  0.8504131777095376  0.2908079342340246  0.4125495828106431  1.0000
  C   C14       1.0  0.14958682181445254  0.709192065833303  0.587450417626421  1.0000
  C   C15       1.0  0.912477875268536  0.22237635948179488  0.4875498976086472  1.0000
  C   C16       1.0  0.0875221242539539  0.7776236405820381  0.5124501021960158  1.0000
  C   C17       1.0  0.8734773709245217  0.11909076189807956  0.5441190468163859  1.0000
  C   C18       1.0  0.12652262889380947  0.8809092371332818  0.4558809530946985  1.0000
  C   C19       1.0  0.8479078475142627  0.026381042599430766  0.5983548488375232  1.0000
  C   C20       1.0  0.15209215200822718  0.9736189574644022  0.40164515096713993  1.0000
  C   C21       1.0  0.8223071090670263  0.9268647819066477  0.6591391447953759  1.0000
  C   C22       1.0  0.17769289143716954  0.07313521815494062  0.3408608549425455  1.0000
  C   C23       1.0  0.8013306855055958  0.8352528426226312  0.7162319391639967  1.0000
  C   C24       1.0  0.19866931500010065  0.16474715744245175  0.28376806120632575  1.0000
  C   C25       1.0  0.7841310839723342  0.7333896532496803  0.783585007752195  1.0000
  C   C26       1.0  0.21586891555015572  0.2666103468141526  0.21641499205246803  1.0000
  C   C27       1.0  0.6805966885913268  0.6721976028388456  0.7921034687693289  1.0000
  C   C28       1.0  0.31940331191436966  0.32780239722623744  0.2078965316009936  1.0000
  C   C29       1.0  0.5761303377510666  0.708084914384507  0.7344586779932203  1.0000
  C   C30       1.0  0.42386966305047125  0.2919150846481042  0.2655413224835237  1.0000
  C   C31       1.0  0.4760791594250025  0.7266758295159  0.6917942362609654  1.0000
  C   C32       1.0  0.5239208400974874  0.2733241705479329  0.3082057635436976  1.0000
  C   C33       1.0  0.3662222561275225  0.734459013519088  0.6497324582684664  1.0000
  C   C34       1.0  0.6337777433964678  0.26554098654823943  0.35026754216859785  1.0000
  C   C35       1.0  0.2643399766434711  0.7321235613414576  0.6156266493579791  1.0000
  C   C36       1.0  0.7356600228790189  0.2678764387223754  0.384373350446684  1.0000
  C   C37       1.0  0.900500531551664  0.40094533402955795  0.3542777477847212  1.0000
  C   C38       1.0  0.09949946895403237  0.5990546660355249  0.6457222525856013  1.0000
  C   C39       1.0  0.07354109220149416  0.511111496555784  0.34166076136109674  1.0000
  C   C40       1.0  0.9264589083027016  0.4888885035058044  0.6583392383768246  1.0000
  C   C41       1.0  0.26879251596879794  0.5990907497893152  0.3532593025447389  1.0000
  C   C42       1.0  0.731207484535398  0.4009092502722733  0.6467406971931825  1.0000
  C   C43       1.0  0.24800795038264636  0.6993428621621497  0.2790319358813706  1.0000
  C   C44       1.0  0.7519920491398435  0.3006571379016833  0.7209680639232924  1.0000
  C   C45       1.0  0.3398174564485671  0.7768882477378396  0.25272912470716474  1.0000
  C   C46       1.0  0.6601825440571292  0.2231117523272433  0.7472708756631578  1.0000
  C   C47       1.0  0.4532294630222383  0.7561362869962934  0.30107120573034735  1.0000
  C   C48       1.0  0.5467705365017518  0.24386371307103413  0.6989287947067166  1.0000
  C   C49       1.0  0.47458075604780553  0.6559489710678302  0.3756435425788043  1.0000
  C   C50       1.0  0.5254192434746844  0.34405102899600276  0.6243564572258589  1.0000
  C   C51       1.0  0.38360685626342833  0.578429776941658  0.401265150387883  1.0000
  C   C52       1.0  0.6163931432590615  0.4215702231221752  0.59873484941678  1.0000
  C   C53       1.0  0.5311666223938494  0.9261590382455934  0.2024657842338785  1.0000
  C   C54       1.0  0.46883337811184694  0.07384096181948961  0.7975342161364439  1.0000
  C   C55       1.0  0.6751920064745802  0.559038403047486  0.867244891860803  1.0000
  C   C56       1.0  0.3248079930479096  0.44096159701634696  0.13275510794386003  1.0000
  C   C57       1.0  0.49629609240610356  0.6912419131143323  0.9515658647115343  1.0000
  C   C58       1.0  0.5037039080995928  0.3087580869507507  0.04843413565878839  1.0000
  C   C59       1.0  0.2783840357621433  0.8249345435480113  0.01467623202167902  1.0000
  C   C60       1.0  0.7216159647420526  0.1750654565135772  0.9853237677162425  1.0000
  C   C61       1.0  0.31427383199938097  0.945378623915973  0.017315482530371355  1.0000
  C   C62       1.0  0.685726167523109  0.054621376147859904  0.9826845172742916  1.0000
  C   C63       1.0  0.2265733635908151  0.04924616044010277  0.058632632652773256  1.0000
  C   C64       1.0  0.7734266369148813  0.9507538396249804  0.9413673677175493  1.0000
  C   C65       1.0  0.10111051814194578  0.03584869601809517  0.09758618174464208  1.0000
  C   C66       1.0  0.8988894813820445  0.9641513040492324  0.9024138186924221  1.0000
  C   C67       1.0  0.06490662895901224  0.9159220224358491  0.09556202037136742  1.0000
  C   C68       1.0  0.9350933715451839  0.08407797762573942  0.9044379793665541  1.0000
  C   C69       1.0  0.15313552969540442  0.8120081743012985  0.054048968291872654  1.0000
  C   C70       1.0  0.8468644698285857  0.187991825766029  0.9459510321451915  1.0000
  C   C71       1.0  0.9022927525227878  0.1266616715845265  0.18524836239220055  1.0000
  C   C72       1.0  0.0977072470012023  0.8733383284828011  0.8147516380448636  1.0000
  N   N1        1.0  0.1806586454956159  0.5171602762735258  0.3830520461881659  1.0000
  N   N2        1.0  0.8193413540268741  0.48283972379030715  0.616947953616497  1.0000
  N   N3        1.0  0.35974805296077206  0.7184231162293427  0.970946659920024  1.0000
  N   N4        1.0  0.6402519465632182  0.28157688383798474  0.029053340517039995  1.0000
  O   O1        1.0  0.8077516125149924  0.44475558251917985  0.0550453367611172  1.0000
  O   O2        1.0  0.19224838798920368  0.5552444175424085  0.9449546629768042  1.0000
  O   O3        1.0  0.7973349199444579  0.6612208813054143  0.44937176798480527  1.0000
  O   O4        1.0  0.20266508056123833  0.33877911875966854  0.5506282323855173  1.0000
  O   O5        1.0  0.019596325772151042  0.4116645384562421  0.38838059122041707  1.0000
  O   O6        1.0  0.980403673751839  0.5883354616110854  0.611619409216647  1.0000
  O   O7        1.0  0.028661055668060795  0.5798306591166127  0.2727378783175151  1.0000
  O   O8        1.0  0.9713389438559293  0.42016934095071473  0.7272621221195491  1.0000
  O   O9        1.0  0.5489712387297359  0.8274540351156712  0.28033974458298405  1.0000
  O   O10       1.0  0.451028760792754  0.17254596494816188  0.719660255221679  1.0000
  O   O11       1.0  0.5391599400051857  0.5809484116627471  0.9074505144362989  1.0000
  O   O12       1.0  0.460840059517304  0.41905158840108586  0.09254948536836415  1.0000
  O   O13       1.0  0.5737717923023898  0.752530638173637  0.9691780320857972  1.0000
  O   O14       1.0  0.4262282072201  0.2474693618901961  0.030821967718865965  1.0000
  O   O15       1.0  0.020375738843043677  0.14572995600566713  0.1343403085462524  1.0000
  O   O16       1.0  0.9796242606794462  0.8542700440581659  0.8656596912584107  1.0000
