data_image0
_chemical_formula_structural       H60C44N8O20Br4
_chemical_formula_sum              "H60 C44 N8 O20 Br4"
_cell_length_a       5.542354918716661
_cell_length_b       24.593845770431027
_cell_length_c       9.742481787112771
_cell_angle_alpha    90.0
_cell_angle_beta     104.01313531987442
_cell_angle_gamma    90.0

_space_group_name_H-M_alt    "P 1"
_space_group_IT_number       1

loop_
  _space_group_symop_operation_xyz
  'x, y, z'

loop_
  _atom_site_type_symbol
  _atom_site_label
  _atom_site_symmetry_multiplicity
  _atom_site_fract_x
  _atom_site_fract_y
  _atom_site_fract_z
  _atom_site_occupancy
  H   H1        1.0  0.526986349906087  0.40795148850053803  0.29838732076956764  1.0000
  H   H2        1.0  0.4730136489915402  0.9079514882884722  0.20161267991471127  1.0000
  H   H3        1.0  0.47301365064939027  0.592048511481936  0.701612679846695  1.0000
  H   H4        1.0  0.5269863497589441  0.09204851169400191  0.7983873206998879  1.0000
  H   H5        1.0  0.9054038012576024  0.395797362106878  0.15550113804272667  1.0000
  H   H6        1.0  0.0945961994450178  0.8957973623014179  0.3444988626432157  1.0000
  H   H7        1.0  0.09459619929787477  0.6042026378755961  0.8444988625735359  1.0000
  H   H8        1.0  0.9054038011104594  0.10420263768105616  0.6555011379730469  1.0000
  H   H9        1.0  0.4853578922915771  0.43167892931833785  0.049459823546066393  1.0000
  H   H10       1.0  0.514642107963582  0.931678929106272  0.4505401760819615  1.0000
  H   H11       1.0  0.514642107816439  0.5683210710707419  0.9505401760122817  1.0000
  H   H12       1.0  0.48535789214443414  0.06832107087620204  0.5494598234763867  1.0000
  H   H13       1.0  0.7286457491965933  0.3395663719271033  0.49410488934318597  1.0000
  H   H14       1.0  0.27135425105856575  0.8395663721216432  0.005895110284841868  1.0000
  H   H15       1.0  0.27135425091142273  0.6604336280553708  0.5058951102151621  1.0000
  H   H16       1.0  0.7286457490494505  0.16043362786083082  0.9941048892735063  1.0000
  H   H17       1.0  0.48673217080377373  0.316424645931396  0.34790690494015414  1.0000
  H   H18       1.0  0.5132678298988465  0.8164246457193303  0.1520930957457883  1.0000
  H   H19       1.0  0.5132678297517034  0.683575354051078  0.6520930956761085  1.0000
  H   H20       1.0  0.48673217065663077  0.18357535426314392  0.8479069048704744  1.0000
  H   H21       1.0  0.8395731933556878  0.25299147469976807  0.34697773867519804  1.0000
  H   H22       1.0  0.16042680689947147  0.7529914744877023  0.15302226095282984  1.0000
  H   H23       1.0  0.16042680675232848  0.747008525282706  0.6530222608831501  1.0000
  H   H24       1.0  0.8395731932085446  0.24700852549477184  0.8469777386055183  1.0000
  H   H25       1.0  0.05118481767935862  0.30830920591997796  0.37929186502697826  1.0000
  H   H26       1.0  0.9488151825758006  0.808309206114518  0.12070813460104962  1.0000
  H   H27       1.0  0.9488151824286575  0.691690794062496  0.6207081345313699  1.0000
  H   H28       1.0  0.05118481753221561  0.19169079386795615  0.8792918649572985  1.0000
  H   H29       1.0  0.9605888876348412  0.30189850010878855  0.12225406483861503  1.0000
  H   H30       1.0  0.03941111262031786  0.8018985003033284  0.3777459347894128  1.0000
  H   H31       1.0  0.03941111247317489  0.6981014998736855  0.8777459347197332  1.0000
  H   H32       1.0  0.9605888874876983  0.19810150008575142  0.6222540647689353  1.0000
  H   H33       1.0  0.6429135979461384  0.2868354650935247  0.11132129767824177  1.0000
  H   H34       1.0  0.35708640050402757  0.7868354652880647  0.3886787019481226  1.0000
  H   H35       1.0  0.3570864008043456  0.7131645348889495  0.8886787029363574  1.0000
  H   H36       1.0  0.6429135977989955  0.21316453469440946  0.611321297608562  1.0000
  H   H37       1.0  0.5292688509784634  0.4077493297960227  0.8205854477426184  1.0000
  H   H38       1.0  0.4707311489824097  0.9077493299905627  0.6794145517460499  1.0000
  H   H39       1.0  0.4707311491295528  0.5922506701864514  0.17941455181572968  1.0000
  H   H40       1.0  0.5292688511256064  0.09225066999191145  0.3205854478122982  1.0000
  H   H41       1.0  0.7466168587577703  0.35675274179969085  0.8955619292190926  1.0000
  H   H42       1.0  0.2533831398455709  0.8567527415876249  0.6044380713258267  1.0000
  H   H43       1.0  0.25338313999271395  0.6432472581827832  0.10443807139550655  1.0000
  H   H44       1.0  0.7466168589049134  0.1432472583948491  0.3955619292887724  1.0000
  H   H45       1.0  0.8422794890600835  0.40605663356670624  0.36813567629289135  1.0000
  H   H46       1.0  0.1577205116425367  0.9060566333546404  0.13186432439305104  1.0000
  H   H47       1.0  0.15772051149539373  0.593943366415768  0.6318643243233714  1.0000
  H   H48       1.0  0.8422794889129406  0.09394336662783372  0.8681356762232116  1.0000
  H   H49       1.0  0.42908867833994513  0.48802453435039356  0.6411299690201053  1.0000
  H   H50       1.0  0.570911322068389  0.9880245341383277  0.8588700315264776  1.0000
  H   H51       1.0  0.5709113222155321  0.5119754660386863  0.3588700315961573  1.0000
  H   H52       1.0  0.42908867668209516  0.011975465844146351  0.14112996908812156  1.0000
  H   H53       1.0  0.023272192563826972  0.4397906065998086  0.6417801870460145  1.0000
  H   H54       1.0  0.9767278078445073  0.9397906067943486  0.8582198135005683  1.0000
  H   H55       1.0  0.9767278079916504  0.5602093933826655  0.3582198135702482  1.0000
  H   H56       1.0  0.023272192710969947  0.06020939359473132  0.1417801871156942  1.0000
  H   H57       1.0  0.7396595420252187  0.48350716805327004  0.9117156390702691  1.0000
  H   H58       1.0  0.26034045793565447  0.9835071678412042  0.5882843604183992  1.0000
  H   H59       1.0  0.26034045808279743  0.516492831929204  0.08828436048807892  1.0000
  H   H60       1.0  0.7396595421723616  0.016492832141269915  0.41171563913994896  1.0000
  C   C1        1.0  0.742063074889123  0.3715074553726401  0.16179506408078784  1.0000
  C   C2        1.0  0.25793692536603596  0.8715074551605743  0.33820493554724007  1.0000
  C   C3        1.0  0.257936925218893  0.628492544609834  0.8382049354775604  1.0000
  C   C4        1.0  0.7420630751894413  0.1284925448218998  0.6617950650690226  1.0000
  C   C5        1.0  0.5259573465740646  0.3883255485598916  0.04107559843844732  1.0000
  C   C6        1.0  0.4740426541285557  0.8883255487544315  0.4589244022474951  1.0000
  C   C7        1.0  0.47404265398141265  0.6116744514225825  0.9589244021778153  1.0000
  C   C8        1.0  0.5259573464269216  0.11167445122804254  0.5410755983687675  1.0000
  C   C9        1.0  0.36109324767926404  0.3317748052161179  0.8504629177914156  1.0000
  C   C10       1.0  0.638906750476616  0.831774805004052  0.6495370816955892  1.0000
  C   C11       1.0  0.6389067506237591  0.6682251947663561  0.149537081765269  1.0000
  C   C12       1.0  0.36109324782640706  0.16822519497842203  0.3504629178610954  1.0000
  C   C13       1.0  0.677719112234712  0.3320419464375977  0.37970345444201586  1.0000
  C   C14       1.0  0.32228088846790826  0.832041946225532  0.12029654624392654  1.0000
  C   C15       1.0  0.3222808883207652  0.6679580535448764  0.6202965461742468  1.0000
  C   C16       1.0  0.677719112087569  0.1679580537569422  0.8797034543723361  1.0000
  C   C17       1.0  0.8599121917018556  0.29633751866340463  0.32642187363925596  1.0000
  C   C18       1.0  0.14008780900076462  0.7963375188579445  0.1735781270466864  1.0000
  C   C19       1.0  0.14008780885362163  0.7036624813190695  0.6735781269770067  1.0000
  C   C20       1.0  0.8599121915547125  0.20366248112452953  0.8264218735695762  1.0000
  C   C21       1.0  0.8041096572446063  0.31044914330477186  0.16884370358846054  1.0000
  C   C22       1.0  0.19589034301055297  0.8104491434993117  0.33115629603956737  1.0000
  C   C23       1.0  0.195890343310871  0.6895508566777022  0.831156297027802  1.0000
  C   C24       1.0  0.8041096570974632  0.1895508564831623  0.6688437035187808  1.0000
  C   C25       1.0  0.5616761571887293  0.37326856831139305  0.8942198670041316  1.0000
  C   C26       1.0  0.4383238427721438  0.8732685680993272  0.6057801324845368  1.0000
  C   C27       1.0  0.43832384291928683  0.626731431671081  0.10578013255421656  1.0000
  C   C28       1.0  0.5616761573358724  0.1267314318831469  0.39421986707381135  1.0000
  C   C29       1.0  0.4266771288543147  0.4843880270373516  0.529210365969658  1.0000
  C   C30       1.0  0.5733228715540195  0.9843880268252857  0.9707896345769248  1.0000
  C   C31       1.0  0.5733228717011626  0.5156119729451225  0.4707896346466046  1.0000
  C   C32       1.0  0.42667712900145777  0.015611973157188371  0.02921036603933783  1.0000
  C   C33       1.0  0.24425774532182723  0.44578093326019325  0.44401310700395585  1.0000
  C   C34       1.0  0.7557422535757999  0.9457809330481273  0.055986893680323085  1.0000
  C   C35       1.0  0.755742253428657  0.5542190667222808  0.5559868936106434  1.0000
  C   C36       1.0  0.2442577451746842  0.05421906693434672  0.9440131069342761  1.0000
  C   C37       1.0  0.07414253222307086  0.4762603746211391  0.8275687227492174  1.0000
  C   C38       1.0  0.9258574677378023  0.9762603748156791  0.6724312767394509  1.0000
  C   C39       1.0  0.9258574678849453  0.523739625361335  0.17243127680913067  1.0000
  C   C40       1.0  0.07414253237021384  0.023739625166795033  0.32756872281889715  1.0000
  C   C41       1.0  0.940049676335651  0.48999365339147605  0.9370985932574386  1.0000
  C   C42       1.0  0.05995032362522207  0.9899936531794101  0.5629014062312296  1.0000
  C   C43       1.0  0.05995032377236507  0.5100063465909981  0.0629014063009094  1.0000
  C   C44       1.0  0.9400496764827941  0.010006346803063934  0.4370985933271185  1.0000
  N   N1        1.0  0.6896746208972265  0.38457930037813015  0.30397713786290503  1.0000
  N   N2        1.0  0.3103253775529396  0.8845793005726701  0.19602286176345943  1.0000
  N   N3        1.0  0.31032537740579663  0.615420699604344  0.6960228616937797  1.0000
  N   N4        1.0  0.6896746207500836  0.11542069940980403  0.8039771377932252  1.0000
  N   N5        1.0  0.2199946080924553  0.3237994270735167  0.9353046001094181  1.0000
  N   N6        1.0  0.780005392315879  0.8237994272680568  0.5646954004371648  1.0000
  N   N7        1.0  0.7800053924630219  0.6762005729089574  0.06469540050684466  1.0000
  N   N8        1.0  0.21999460823959824  0.17620057312102322  0.4353046001790977  1.0000
  O   O1        1.0  0.2983622630328088  0.35828192720448904  0.052814889916596386  1.0000
  O   O2        1.0  0.7016377376698114  0.858281927399029  0.447185110769346  1.0000
  O   O3        1.0  0.7016377375226684  0.6417180727779851  0.9471851106996662  1.0000
  O   O4        1.0  0.2983622628856658  0.14171807258344515  0.5528148898469166  1.0000
  O   O5        1.0  0.25756754365276807  0.43112449467939284  0.3216359307455887  1.0000
  O   O6        1.0  0.7424324570498521  0.9311244944673269  0.17836406994035367  1.0000
  O   O7        1.0  0.7424324569027091  0.5688755053030813  0.678364069870674  1.0000
  O   O8        1.0  0.25756754350562505  0.06887550551514711  0.8216359306759089  1.0000
  O   O9        1.0  0.06836510317646952  0.42903061475184145  0.49973890174465124  1.0000
  O   O10       1.0  0.9316348970786897  0.9290306145397755  0.0002610978833765447  1.0000
  O   O11       1.0  0.9316348973790077  0.5709693852306327  0.5002610988716114  1.0000
  O   O12       1.0  0.06836510302932654  0.0709693854426985  0.9997389016749716  1.0000
  O   O13       1.0  0.9437459196246248  0.4437820299386515  0.7283199281438145  1.0000
  O   O14       1.0  0.05625408078370934  0.9437820297265855  0.7716800724027684  1.0000
  O   O15       1.0  0.056254080930852296  0.5562179700438226  0.2716800724724481  1.0000
  O   O16       1.0  0.9437459193243067  0.05621797025588847  0.2283199271555798  1.0000
  O   O17       1.0  0.2860393556305809  0.4931919035038911  0.8306047594147942  1.0000
  O   O18       1.0  0.7139606447777535  0.993191903698431  0.6693952411317888  1.0000
  O   O19       1.0  0.7139606449248963  0.506808096478583  0.1693952412014685  1.0000
  O   O20       1.0  0.2860393553302628  0.006808096284043075  0.3306047584265594  1.0000
  Br  Br1       1.0  0.3023847915732794  0.29390557326705224  0.6782957924419131  1.0000
  Br  Br2       1.0  0.6976152088350548  0.7939055734615922  0.8217042081046697  1.0000
  Br  Br3       1.0  0.6976152089821978  0.7060944267154218  0.3217042081743496  1.0000
  Br  Br4       1.0  0.30238479172042243  0.2060944265208819  0.1782957925115928  1.0000
