data_image0
_chemical_formula_structural       H30C12N4O8S4Cl2
_chemical_formula_sum              "H30 C12 N4 O8 S4 Cl2"
_cell_length_a       10.55287255196372
_cell_length_b       5.080239327086183
_cell_length_c       11.367250717632631
_cell_angle_alpha    90.0
_cell_angle_beta     109.30209986056295
_cell_angle_gamma    90.0

_space_group_name_H-M_alt    "P 1"
_space_group_IT_number       1

loop_
  _space_group_symop_operation_xyz
  'x, y, z'

loop_
  _atom_site_type_symbol
  _atom_site_label
  _atom_site_symmetry_multiplicity
  _atom_site_fract_x
  _atom_site_fract_y
  _atom_site_fract_z
  _atom_site_occupancy
  H   H1        1.0  0.5029466012190024  0.5181474258437716  0.09269612880751851  1.0000
  H   H2        1.0  0.49705339888092176  0.01814742654119767  0.9073038708062078  1.0000
  H   H3        1.0  0.6933202521801887  0.9840498346890562  0.4147123087216255  1.0000
  H   H4        1.0  0.30667974732011277  0.4840498353864823  0.5852876918358363  1.0000
  H   H5        1.0  0.6826686659296357  0.6503567720489698  0.4067349925350345  1.0000
  H   H6        1.0  0.31733133417028847  0.15035677077798462  0.593265007078692  1.0000
  H   H7        1.0  0.61693119275114  0.8215139369022092  0.501422703991842  1.0000
  H   H8        1.0  0.38306880769253265  0.32151393759963526  0.4985772965539266  1.0000
  H   H9        1.0  0.4451686556529301  0.0020050334923575937  0.34535545721660876  1.0000
  H   H10       1.0  0.5548313447907425  0.5020050347633427  0.6546445433291597  1.0000
  H   H11       1.0  0.573828739284996  0.11808642100805954  0.20656636823378266  1.0000
  H   H12       1.0  0.42617125987155696  0.6180864203106334  0.7934336313916369  1.0000
  H   H13       1.0  0.4133427288925178  0.9833968437989788  0.12687480381269012  1.0000
  H   H14       1.0  0.5866572712074064  0.48339684449640485  0.8731251958010363  1.0000
  H   H15       1.0  0.7657085855318532  0.17509112715565384  0.9658600915114307  1.0000
  H   H16       1.0  0.23429141456807095  0.6750911264582278  0.03413990810229568  1.0000
  H   H17       1.0  0.913506669631629  0.9934338414120906  0.3436877853487108  1.0000
  H   H18       1.0  0.08649333046829533  0.49343384014110536  0.6563122142650156  1.0000
  H   H19       1.0  0.915721343723133  0.6616678513702974  0.3228706136356949  1.0000
  H   H20       1.0  0.08427865543341992  0.16166785206772347  0.6771293859897247  1.0000
  H   H21       1.0  0.04900561334154515  0.8175794037605463  0.422666947295809  1.0000
  H   H22       1.0  0.950994386758379  0.31757940445797234  0.5773330523179174  1.0000
  H   H23       1.0  0.24402580463025667  0.3325988760000274  0.2046488113975297  1.0000
  H   H24       1.0  0.7559741954696675  0.8325988753026015  0.7953511882161968  1.0000
  H   H25       1.0  0.09630704874406526  0.7032132405559395  0.23662213080442165  1.0000
  H   H26       1.0  0.903692951355859  0.20321324125336557  0.7633778688093048  1.0000
  H   H27       1.0  0.8626584668626949  0.7154303500273546  0.08727815414357434  1.0000
  H   H28       1.0  0.13734153358097786  0.2154303487563695  0.9127218464021943  1.0000
  H   H29       1.0  0.9786944612778428  0.9009510094527784  0.037334513607287345  1.0000
  H   H30       1.0  0.021305538822081256  0.40095101015020446  0.962665486006439  1.0000
  C   C1        1.0  0.4999610079086263  0.846285718682061  0.3147540605392295  1.0000
  C   C2        1.0  0.5000389921912979  0.3462857193794871  0.6852459390744969  1.0000
  C   C3        1.0  0.42127600795742376  0.5902720417150003  0.3071308089313436  1.0000
  C   C4        1.0  0.578723992486249  0.09027204044401511  0.6928691916144251  1.0000
  C   C5        1.0  0.5134380955441586  0.9371244489638265  0.19174590368006164  1.0000
  C   C6        1.0  0.486561904899514  0.4371244496612527  0.8082540968657069  1.0000
  C   C7        1.0  0.11996953347657742  0.12084172427209462  0.2649054859942748  1.0000
  C   C8        1.0  0.8800304656799754  0.6208417255430797  0.7350945136311448  1.0000
  C   C9        1.0  0.03174132446081169  0.873912373838187  0.23468421125783032  1.0000
  C   C10       1.0  0.9682586756391124  0.37391237256720194  0.7653157883558962  1.0000
  C   C11       1.0  0.9259428491482439  0.8922905060458975  0.10564029279786082  1.0000
  C   C12       1.0  0.07405715000830902  0.3922905067433236  0.8943597068275587  1.0000
  N   N1        1.0  0.6323834512906259  0.8220139094106809  0.41520003071789346  1.0000
  N   N2        1.0  0.36761654915304676  0.3220139081396958  0.5847999698278751  1.0000
  N   N3        1.0  0.9722583973957681  0.8329116834003473  0.3352403186605133  1.0000
  N   N4        1.0  0.02774160176078477  0.3329116821293622  0.6647596809649063  1.0000
  O   O1        1.0  0.4638714716334975  0.42589387835808457  0.3938737613017508  1.0000
  O   O2        1.0  0.5361285288101753  0.9258938776606584  0.6061262392440179  1.0000
  O   O3        1.0  0.31498496952666843  0.5676962293140948  0.21196739911973378  1.0000
  O   O4        1.0  0.6850150305732557  0.06769622804310962  0.7880326004939925  1.0000
  O   O5        1.0  0.12506787461244934  0.26624335447908604  0.3534124986836291  1.0000
  O   O6        1.0  0.8749321245441036  0.76624335378166  0.6465875009417905  1.0000
  O   O7        1.0  0.18507671061795133  0.15378569584990467  0.1856280657343457  1.0000
  O   O8        1.0  0.8149232888823499  0.6537856971208899  0.814371934823116  1.0000
  S   S1        1.0  0.5984913324635313  0.7080352870035133  0.12052775983816555  1.0000
  S   S2        1.0  0.4015086676363929  0.20803528573252805  0.8794722397755609  1.0000
  S   S3        1.0  0.8230851982977032  0.18810905913523476  0.091804205058767  1.0000
  S   S4        1.0  0.17691480214596944  0.6881090584378088  0.9081957954870016  1.0000
  Cl  Cl1       1.0  0.18724685124018817  0.8130721259482756  0.5993347424597506  1.0000
  Cl  Cl2       1.0  0.8127531492034845  0.31307212467729056  0.400665258086018  1.0000
