data_image0
_chemical_formula_structural       H96C104N8O20S4Br16
_chemical_formula_sum              "H96 C104 N8 O20 S4 Br16"
_cell_length_a       9.000401071428147
_cell_length_b       33.89850918019404
_cell_length_c       9.43942887812256
_cell_angle_alpha    90.0
_cell_angle_beta     104.10282798035016
_cell_angle_gamma    90.0

_space_group_name_H-M_alt    "P 1"
_space_group_IT_number       1

loop_
  _space_group_symop_operation_xyz
  'x, y, z'

loop_
  _atom_site_type_symbol
  _atom_site_label
  _atom_site_symmetry_multiplicity
  _atom_site_fract_x
  _atom_site_fract_y
  _atom_site_fract_z
  _atom_site_occupancy
  H   H1        1.0  0.6506862127686458  0.9553821519951168  0.38891685666749043  1.0000
  H   H2        1.0  0.8493137881061288  0.45538215199797877  0.1110831430564321  1.0000
  H   H3        1.0  0.3493137872447034  0.044617847999159195  0.6110831434658325  1.0000
  H   H4        1.0  0.15068621190722054  0.5446178479962972  0.8889168570768909  1.0000
  H   H5        1.0  0.08761787471966134  0.7346978879694036  0.598775162562624  1.0000
  H   H6        1.0  0.4123821255399048  0.23469788797226568  0.90122483796703  1.0000
  H   H7        1.0  0.9123821252936879  0.2653021120248723  0.401224837570699  1.0000
  H   H8        1.0  0.5876178744734445  0.7653021120220103  0.09877516216629287  1.0000
  H   H9        1.0  0.37363122583132924  0.7847283825550151  0.3218363439746995  1.0000
  H   H10       1.0  0.12636877376773  0.2847283825578772  0.17816365664461173  1.0000
  H   H11       1.0  0.62636877418202  0.21527161743926077  0.6781636561586234  1.0000
  H   H12       1.0  0.8736312262456192  0.7152716174363987  0.8218363434887112  1.0000
  H   H13       1.0  0.2953922723430596  0.7407733905499222  0.37727744208545383  1.0000
  H   H14       1.0  0.20460772807123043  0.24077339055278424  0.12272255742855791  1.0000
  H   H15       1.0  0.7046077276702896  0.2592266094443537  0.6227225580478691  1.0000
  H   H16       1.0  0.7953922719421188  0.7592266094414917  0.877277442704765  1.0000
  H   H17       1.0  0.3773976969791012  0.7772599865658512  0.509655359671442  1.0000
  H   H18       1.0  0.12260230217282268  0.2772599865687132  0.9903446408712812  1.0000
  H   H19       1.0  0.622602303034248  0.22274001342842475  0.4903446404618809  1.0000
  H   H20       1.0  0.8773976978405266  0.7227400134255627  0.00965535926204158  1.0000
  H   H21       1.0  0.01934598738950864  0.9508476806063333  0.013343454422938902  1.0000
  H   H22       1.0  0.48065401220955056  0.4508476806091954  0.48665654619637233  1.0000
  H   H23       1.0  0.9806540126238406  0.049152319387942546  0.9866565457103841  1.0000
  H   H24       1.0  0.5193459878037987  0.5491523193850805  0.5133434539369507  1.0000
  H   H25       1.0  0.19588295277485349  0.8549144788624629  0.3077539669469336  1.0000
  H   H26       1.0  0.3041170479318479  0.3549144788653249  0.19224603365930826  1.0000
  H   H27       1.0  0.8041170472384956  0.14508552113181303  0.6922460331863892  1.0000
  H   H28       1.0  0.6958829520815013  0.645085521128951  0.8077539664740148  1.0000
  H   H29       1.0  0.8618986650867704  0.8816790104581501  0.7710330787127847  1.0000
  H   H30       1.0  0.6381013356332803  0.3816790104610122  0.72896692202678  1.0000
  H   H31       1.0  0.13810133492657892  0.11832098953612571  0.22896692142053815  1.0000
  H   H32       1.0  0.36189866438006885  0.6183209895332638  0.2710330781065429  1.0000
  H   H33       1.0  0.08010577788464415  0.8002323366435645  0.11058147053987416  1.0000
  H   H34       1.0  0.4198942225296458  0.3002323366464266  0.38941852897413753  1.0000
  H   H35       1.0  0.9198942221287051  0.19976766335071133  0.8894185295934488  1.0000
  H   H36       1.0  0.5801057774837034  0.6997676633478493  0.6105814711591854  1.0000
  H   H37       1.0  0.2856257967496644  0.034439561155748664  0.35512463148832324  1.0000
  H   H38       1.0  0.21437420255698345  0.5344395611528866  0.14487536803875786  1.0000
  H   H39       1.0  0.7143742032636848  0.9655604388385273  0.6448753686449997  1.0000
  H   H40       1.0  0.7856257971639544  0.4655604388413893  0.855124631002335  1.0000
  H   H41       1.0  0.011773906844498954  0.03607426254351284  0.20952618995854766  1.0000
  H   H42       1.0  0.48822609386220256  0.5360742625406507  0.2904738106476942  1.0000
  H   H43       1.0  0.9882260931688501  0.963925737450763  0.7904738101747752  1.0000
  H   H44       1.0  0.5117739061511468  0.4639257374536251  0.7095261894856287  1.0000
  H   H45       1.0  0.878675453293058  0.05730544696446384  0.6119844204386892  1.0000
  H   H46       1.0  0.6213245471345812  0.5573054469616018  0.8880155792086455  1.0000
  H   H47       1.0  0.12132454672029125  0.942694553029812  0.3880155796946338  1.0000
  H   H48       1.0  0.37867545287876797  0.4426945530326741  0.11198442092467745  1.0000
  H   H49       1.0  0.15894958838223738  0.0554366883809149  0.7423117210573072  1.0000
  H   H50       1.0  0.34105041158491733  0.5554366883780528  0.7576882783801167  1.0000
  H   H51       1.0  0.8410504116311118  0.944563311613361  0.25768827907601566  1.0000
  H   H52       1.0  0.6589495881360206  0.44456331161622303  0.2423117206609762  1.0000
  H   H53       1.0  0.6815580089985274  0.04547888881499111  0.3887614611423021  1.0000
  H   H54       1.0  0.8184419910610162  0.545478888812129  0.11123853968691987  1.0000
  H   H55       1.0  0.31844199101482173  0.9545211111792847  0.6112385389910208  1.0000
  H   H56       1.0  0.18155800895233293  0.45452111118214683  0.888761460446403  1.0000
  H   H57       1.0  0.7310588060783517  0.02833685059404437  0.2293730566560531  1.0000
  H   H58       1.0  0.7689411947964229  0.5283368505911823  0.2706269430678694  1.0000
  H   H59       1.0  0.2689411939349975  0.9716631494002315  0.7706269434772698  1.0000
  H   H60       1.0  0.23105880492451497  0.4716631494030936  0.7293730559732233  1.0000
  H   H61       1.0  0.8031823809312257  0.0975097421668111  0.17480258589899086  1.0000
  H   H62       1.0  0.6968176188359066  0.597509742163949  0.325197413838001  1.0000
  H   H63       1.0  0.1968176190821236  0.9024902578274648  0.8251974142343321  1.0000
  H   H64       1.0  0.30318238117744256  0.4024902578303268  0.674802586295322  1.0000
  H   H65       1.0  0.7509788355372937  0.11456192274877412  0.33240977632135593  1.0000
  H   H66       1.0  0.7490211645222499  0.614561922745912  0.16759022450786604  1.0000
  H   H67       1.0  0.24902116447605543  0.8854380772455018  0.667590223811967  1.0000
  H   H68       1.0  0.25097883549109934  0.3854380772483638  0.8324097756254569  1.0000
  H   H69       1.0  0.5341568311792738  0.07194213311967368  0.07430877698309644  1.0000
  H   H70       1.0  0.9658431696955008  0.5719421331168116  0.42569122274082605  1.0000
  H   H71       1.0  0.4658431699417177  0.9280578668746022  0.9256912231371571  1.0000
  H   H72       1.0  0.03415683031784854  0.4280578668774643  0.574308777392497  1.0000
  H   H73       1.0  0.48241548472509144  0.09000058096308695  0.23139740012079388  1.0000
  H   H74       1.0  0.01758451598161  0.5900005809602249  0.26860260048544793  1.0000
  H   H75       1.0  0.5175845152882579  0.909999419031189  0.7686026000125291  1.0000
  H   H76       1.0  0.9824154840317393  0.40999941903405096  0.731397399647875  1.0000
  H   H77       1.0  0.5597905093535795  0.16833849534994022  0.28892239251623864  1.0000
  H   H78       1.0  0.940209491521195  0.6683384953470781  0.21107760720768387  1.0000
  H   H79       1.0  0.4402094906597696  0.8316615046443356  0.7110776076170843  1.0000
  H   H80       1.0  0.059790508492154316  0.33166150464719774  0.7889223929256391  1.0000
  H   H81       1.0  0.485017152936144  0.2328067514134504  0.15752193985762858  1.0000
  H   H82       1.0  0.014982847478146025  0.7328067514105883  0.34247805965638317  1.0000
  H   H83       1.0  0.5149828470772052  0.7671932485808255  0.8424780602756944  1.0000
  H   H84       1.0  0.9850171522427917  0.26719324858368754  0.6575219393847097  1.0000
  H   H85       1.0  0.4024166785881537  0.17841499423619728  0.7528678974844678  1.0000
  H   H86       1.0  0.09758332167141245  0.6784149942333353  0.7471321030451863  1.0000
  H   H87       1.0  0.5975833214251954  0.8215850057580786  0.24713210264885513  1.0000
  H   H88       1.0  0.9024166783419367  0.3215850057609407  0.2528678970881368  1.0000
  H   H89       1.0  0.47267238840815373  0.11186252114637374  0.8661586449847342  1.0000
  H   H90       1.0  0.027327610743770207  0.6118625211435117  0.6338413555579892  1.0000
  H   H91       1.0  0.5273276116051955  0.8881374788479022  0.13384135514858878  1.0000
  H   H92       1.0  0.972672389269579  0.3881374788507642  0.36615864457533376  1.0000
  H   H93       1.0  0.13292208821565923  0.7923437159794958  0.46465974691261597  1.0000
  H   H94       1.0  0.3670779113834  0.292343715982358  0.03534025370669526  1.0000
  H   H95       1.0  0.86707791179769  0.20765628401477998  0.535340253220707  1.0000
  H   H96       1.0  0.6329220886299493  0.7076562840119179  0.9646597464266276  1.0000
  C   C1        1.0  0.3090900955119248  0.7728006052049645  0.3970540964920856  1.0000
  C   C2        1.0  0.190909903794723  0.27280060520782656  0.10294590303499544  1.0000
  C   C3        1.0  0.6909099045014244  0.22719939478931134  0.6029459036412372  1.0000
  C   C4        1.0  0.8090900962186263  0.7271993947864492  0.8970540970983275  1.0000
  C   C5        1.0  0.37507026733681526  0.943365614104477  0.257415575447215  1.0000
  C   C6        1.0  0.12492973196983247  0.44336561410733905  0.24258442407986608  1.0000
  C   C7        1.0  0.6249297326765338  0.05663438588979891  0.742584424686108  1.0000
  C   C8        1.0  0.8750702680435167  0.5566343858869369  0.7574155760534569  1.0000
  C   C9        1.0  0.24954466885237148  0.9581283468057838  0.14543287490730966  1.0000
  C   C10       1.0  0.2504553315619185  0.45812834680864584  0.3545671246067021  1.0000
  C   C11       1.0  0.7504553311609778  0.041871653188492085  0.8545671252260133  1.0000
  C   C12       1.0  0.7495446684514308  0.54187165318563  0.6454328755266209  1.0000
  C   C13       1.0  0.11349993892265546  0.9378855492139379  0.09471680279083297  1.0000
  C   C14       1.0  0.3865000603839923  0.4378855492167999  0.40528319673624813  1.0000
  C   C15       1.0  0.8865000607982824  0.062114450780338046  0.9052831962502598  1.0000
  C   C16       1.0  0.6134999396293568  0.562114450777476  0.5947168033970748  1.0000
  C   C17       1.0  0.09463772090118427  0.9007332251012351  0.15263079908220742  1.0000
  C   C18       1.0  0.40536227980551715  0.40073322510409715  0.34736920152403444  1.0000
  C   C19       1.0  0.9053622791121649  0.09926677489304084  0.8473692010511155  1.0000
  C   C20       1.0  0.594637720207832  0.5992667748901788  0.6526307986092885  1.0000
  C   C21       1.0  0.2115129120902188  0.8838319676755916  0.26163414880351676  1.0000
  C   C22       1.0  0.28848708832407116  0.3838319676784536  0.23836585071049496  1.0000
  C   C23       1.0  0.7884870879231304  0.11616803231868437  0.7383658513298061  1.0000
  C   C24       1.0  0.7115129116892781  0.6161680323158223  0.7616341494228279  1.0000
  C   C25       1.0  0.3455144294187081  0.9051782934432977  0.3116167901375986  1.0000
  C   C26       1.0  0.15448557018035114  0.40517829344615974  0.1883832104817126  1.0000
  C   C27       1.0  0.6544855705946412  0.09482170655097821  0.6883832099957243  1.0000
  C   C28       1.0  0.8455144298329981  0.5948217065481161  0.8116167896516103  1.0000
  C   C29       1.0  0.07037828974627079  0.7975715895434325  0.739945065175402  1.0000
  C   C30       1.0  0.42962171051329545  0.2975715895462946  0.7600549353542521  1.0000
  C   C31       1.0  0.9296217102670785  0.20242841045084334  0.260054934957921  1.0000
  C   C32       1.0  0.5703782895000539  0.7024284104479813  0.23994506477907093  1.0000
  C   C33       1.0  0.978129006254173  0.8322727563041021  0.7027845996423147  1.0000
  C   C34       1.0  0.521870993065824  0.3322727563069641  0.7972154000180893  1.0000
  C   C35       1.0  0.021870993759176113  0.1677272436901738  0.29721540049100825  1.0000
  C   C36       1.0  0.4781290066551139  0.6677272436873117  0.20278459902300344  1.0000
  C   C37       1.0  0.928651237018929  0.8549939313240943  0.8039291181351295  1.0000
  C   C38       1.0  0.5713487634087102  0.3549939313269563  0.6960708815122051  1.0000
  C   C39       1.0  0.07134876299442024  0.14500606867018165  0.1960708819981934  1.0000
  C   C40       1.0  0.42865123660463894  0.6450060686673196  0.3039291186211178  1.0000
  C   C41       1.0  0.966574260298378  0.8433404869823351  0.9504051460896714  1.0000
  C   C42       1.0  0.5334257401292611  0.3433404869851972  0.5495948535576631  1.0000
  C   C43       1.0  0.033425739714971224  0.15665951301194073  0.049594854043651375  1.0000
  C   C44       1.0  0.46657425988408796  0.6566595130090787  0.4504051465756599  1.0000
  C   C45       1.0  0.052739255717407084  0.8091228391254874  0.9958754738165083  1.0000
  C   C46       1.0  0.447260744542159  0.3091228391283495  0.5041245267131454  1.0000
  C   C47       1.0  0.9472607442959421  0.19087716086878848  0.004124526316814515  1.0000
  C   C48       1.0  0.5527392554711902  0.6908771608659264  0.49587547342017735  1.0000
  C   C49       1.0  0.10125027953611905  0.7871226834243708  0.8918351387197958  1.0000
  C   C50       1.0  0.3987497204310357  0.28712268342723285  0.6081648607176281  1.0000
  C   C51       1.0  0.8987497201848188  0.21287731656990508  0.10816486032129705  1.0000
  C   C52       1.0  0.6012502795823136  0.712877316567043  0.39183513941569487  1.0000
  C   C53       1.0  0.19045593818385184  0.039657118336798344  0.40539025478297525  1.0000
  C   C54       1.0  0.3095440622304382  0.5396571183339363  0.09460974473103646  1.0000
  C   C55       1.0  0.8095440618294973  0.9603428816574775  0.5946097453503477  1.0000
  C   C56       1.0  0.6904559377829111  0.4603428816603396  0.9053902554022866  1.0000
  C   C57       1.0  0.03906620966377293  0.040771745820831665  0.32706741758314506  1.0000
  C   C58       1.0  0.46093378964287485  0.5407717458179696  0.17293258194393601  1.0000
  C   C59       1.0  0.9609337903495763  0.9592282541734443  0.6729325825501778  1.0000
  C   C60       1.0  0.5390662103704744  0.4592282541763063  0.8270674181893869  1.0000
  C   C61       1.0  0.9222559179963504  0.04736772497765664  0.39947949144321865  1.0000
  C   C62       1.0  0.5777440817707818  0.5473677249747946  0.10052050829377318  1.0000
  C   C63       1.0  0.0777440820169987  0.9526322753116175  0.6005205086901042  1.0000
  C   C64       1.0  0.4222559182425674  0.4526322753144795  0.8994794918395497  1.0000
  C   C65       1.0  0.9652228249193495  0.05228428514595387  0.5513084723878436  1.0000
  C   C66       1.0  0.5347771755082897  0.5522842851430918  0.9486915272594911  1.0000
  C   C67       1.0  0.034777174801588234  0.947715714848322  0.44869152665324924  1.0000
  C   C68       1.0  0.4652228245050595  0.44771571485118405  0.05130847287383177  1.0000
  C   C69       1.0  0.11860084036361403  0.05117813325589056  0.6246943746150689  1.0000
  C   C70       1.0  0.38139915989595213  0.5511781332530286  0.8753056259145852  1.0000
  C   C71       1.0  0.8813991596497353  0.9488218667383853  0.37530562551825397  1.0000
  C   C72       1.0  0.6186008401173971  0.4488218667412474  0.1246943742187379  1.0000
  C   C73       1.0  0.7582564094304168  0.050758176734371385  0.31618719837765086  1.0000
  C   C74       1.0  0.7417435906291269  0.5507581767315093  0.18381280245157114  1.0000
  C   C75       1.0  0.24174359058293238  0.9492418232599046  0.683812801755672  1.0000
  C   C76       1.0  0.25825640938422234  0.4492418232627665  0.8161871976817519  1.0000
  C   C77       1.0  0.7258102425802256  0.09185081896814488  0.246535594491441  1.0000
  C   C78       1.0  0.7741897571869066  0.5918508189652828  0.2534644052455509  1.0000
  C   C79       1.0  0.27418975743312357  0.9081491810261311  0.753464405641882  1.0000
  C   C80       1.0  0.22581024282644252  0.40814918102899306  0.746535594887772  1.0000
  C   C81       1.0  0.5591259645379636  0.09506921802575723  0.15835593258908234  1.0000
  C   C82       1.0  0.9408740352291688  0.5950692180228953  0.3416440671479095  1.0000
  C   C83       1.0  0.4408740354753856  0.9049307819685186  0.8416440675442406  1.0000
  C   C84       1.0  0.05912596478418051  0.4049307819713807  0.6583559329854133  1.0000
  C   C85       1.0  0.5222944292240043  0.13454385164126245  0.08716522266869903  1.0000
  C   C86       1.0  0.9777055705431281  0.6345438516384004  0.41283477706829286  1.0000
  C   C87       1.0  0.47770557078934506  0.8654561483530134  0.912834777464624  1.0000
  C   C88       1.0  0.022294429177809688  0.3654561483558755  0.5871652219728  1.0000
  C   C89       1.0  0.5264216650563093  0.16916085776864764  0.17002022857477808  1.0000
  C   C90       1.0  0.973578334710823  0.6691608577657856  0.32997977116221383  1.0000
  C   C91       1.0  0.47357833466462856  0.8308391422256283  0.8299797704663148  1.0000
  C   C92       1.0  0.026421665302526137  0.3308391422284903  0.6700202289711091  1.0000
  C   C93       1.0  0.48559584507760606  0.20485758512523025  0.10057129647570985  1.0000
  C   C94       1.0  0.014404154521453185  0.7048575851223683  0.3994287041436014  1.0000
  C   C95       1.0  0.5144041549357432  0.7951424148690456  0.8994287036576131  1.0000
  C   C96       1.0  0.9855958454918959  0.2951424148719077  0.6005712959897215  1.0000
  C   C97       1.0  0.4398145033955111  0.17417796395157586  0.8703821186356445  1.0000
  C   C98       1.0  0.060185496571643626  0.6741779639487138  0.6296178808017794  1.0000
  C   C99       1.0  0.5601854966178381  0.8258220360427001  0.12961788149767842  1.0000
  C   C100      1.0  0.9398145034417056  0.3258220360455621  0.3703821193315436  1.0000
  C   C101      1.0  0.47985663935114203  0.13785354822418924  0.9349552352370482  1.0000
  C   C102      1.0  0.02014336090842417  0.6378535482213271  0.5650447652926059  1.0000
  C   C103      1.0  0.5201433606622072  0.8621464517700866  0.06504476489627484  1.0000
  C   C104      1.0  0.979856639104925  0.3621464517729487  0.4349552348407171  1.0000
  N   N1        1.0  0.22684143332476053  0.044963996260064296  0.5510830087389477  1.0000
  N   N2        1.0  0.27315856664239424  0.5449639962572022  0.9489169906984762  1.0000
  N   N3        1.0  0.7731585663961772  0.9550360037342115  0.44891699030214505  1.0000
  N   N4        1.0  0.7268414333709551  0.45503600373707365  0.05108300943484684  1.0000
  N   N5        1.0  0.44274664292231075  0.20647304171386383  0.9533185443803306  1.0000
  N   N6        1.0  0.05725335593720176  0.7064730417110018  0.5466814550701625  1.0000
  N   N7        1.0  0.5572533567986271  0.793526958280412  0.04668145466076215  1.0000
  N   N8        1.0  0.9427466440761473  0.29352695828327413  0.4533185450631604  1.0000
  O   O1        1.0  0.49925300161608455  0.9633405220392371  0.3014277671679552  1.0000
  O   O2        1.0  0.0007469979829746429  0.46334052204209925  0.19857223345135597  1.0000
  O   O3        1.0  0.5007469983972646  0.03665947795503869  0.6985722329653676  1.0000
  O   O4        1.0  0.9992530020303745  0.5366594779521766  0.8014277666819669  1.0000
  O   O5        1.0  0.8871816971266988  0.8512039944476057  0.19654005542116815  1.0000
  O   O6        1.0  0.6128183029328448  0.3512039944504678  0.3034599454080538  1.0000
  O   O7        1.0  0.1128183028866504  0.14879600554667013  0.8034599447121548  1.0000
  O   O8        1.0  0.3871816970805043  0.648796005543808  0.696540054725269  1.0000
  O   O9        1.0  0.8105581312084237  0.9038550750751516  0.005520704390727096  1.0000
  O   O10       1.0  0.6894418685587086  0.40385507507801366  0.4944792953462648  1.0000
  O   O11       1.0  0.18944186851251418  0.09614492491912426  0.9944792946503658  1.0000
  O   O12       1.0  0.31055813145464056  0.5961449249162623  0.5055207047870581  1.0000
  O   O13       1.0  0.12173719014764799  0.777884014303695  0.6444502222887416  1.0000
  O   O14       1.0  0.3782628101119182  0.2778840143065572  0.8555497782409124  1.0000
  O   O15       1.0  0.8782628098657013  0.22211598569058075  0.3555497778445813  1.0000
  O   O16       1.0  0.6217371899014311  0.7221159856877186  0.14445022189241052  1.0000
  O   O17       1.0  0.16545249051708574  0.7926443938041702  0.3713957210590022  1.0000
  O   O18       1.0  0.3345475098972042  0.29264439380703217  0.1286042784550095  1.0000
  O   O19       1.0  0.8345475094962634  0.20735560619010576  0.6286042790743207  1.0000
  O   O20       1.0  0.6654524901161449  0.7073556061872437  0.8713957216783134  1.0000
  S   S1        1.0  0.9222327579906706  0.8749271622047843  0.08094708435803348  1.0000
  S   S2        1.0  0.5777672417764617  0.3749271622076464  0.4190529153789584  1.0000
  S   S3        1.0  0.07776724202267857  0.12507283778949158  0.9190529157752895  1.0000
  S   S4        1.0  0.4222327582368876  0.6250728377866296  0.5809470847543645  1.0000
  Br  Br1       1.0  0.2745668021008617  0.00844069981010186  0.06378964327199749  1.0000
  Br  Br2       1.0  0.22543319720578606  0.5084406998072398  0.43621035625508353  1.0000
  Br  Br3       1.0  0.7254331979124875  0.991559300184174  0.9362103568613256  1.0000
  Br  Br4       1.0  0.7745668028075632  0.49155930018703614  0.5637896438782394  1.0000
  Br  Br5       1.0  0.5069467638877606  0.8822609859041832  0.458712244897068  1.0000
  Br  Br6       1.0  0.9930532358793717  0.3822609859070453  0.04128775483992382  1.0000
  Br  Br7       1.0  0.49305323612558855  0.11773901409009263  0.5412877552362548  1.0000
  Br  Br8       1.0  0.006946764133977518  0.6177390140872305  0.958712245293399  1.0000
  Br  Br9       1.0  0.9258025005588995  0.8474348664508309  0.503365899883075  1.0000
  Br  Br10      1.0  0.574197499053509  0.347434866453693  0.9966341008695591  1.0000
  Br  Br11      1.0  0.07419749945444981  0.152565133543445  0.4966341002502479  1.0000
  Br  Br12      1.0  0.4258025009598402  0.652565133540583  0.0033658992637638375  1.0000
  Br  Br13      1.0  0.214432392934052  0.7397770431937459  0.9503946953376027  1.0000
  Br  Br14      1.0  0.2855676070331027  0.239777043196608  0.5496053040998211  1.0000
  Br  Br15      1.0  0.7855676070792972  0.2602229568005299  0.049605304795720166  1.0000
  Br  Br16      1.0  0.7144323929802465  0.7602229567976678  0.4503946960335018  1.0000
