data_image0
_chemical_formula_structural       H16C22N2O2Br4
_chemical_formula_sum              "H16 C22 N2 O2 Br4"
_cell_length_a       4.0531141273058875
_cell_length_b       8.679391852913401
_cell_length_c       15.205143742419123
_cell_angle_alpha    93.45175771896021
_cell_angle_beta     94.62627107930044
_cell_angle_gamma    100.17226257031557

_space_group_name_H-M_alt    "P 1"
_space_group_IT_number       1

loop_
  _space_group_symop_operation_xyz
  'x, y, z'

loop_
  _atom_site_type_symbol
  _atom_site_label
  _atom_site_symmetry_multiplicity
  _atom_site_fract_x
  _atom_site_fract_y
  _atom_site_fract_z
  _atom_site_occupancy
  H   H1        1.0  0.3002940812404285  0.8992493528164384  0.942616148454777  1.0000
  H   H2        1.0  0.6997059176866122  0.10075064640909112  0.057383851227564564  1.0000
  H   H3        1.0  0.8242419224442378  0.1852205998170495  0.7658135298112749  1.0000
  H   H4        1.0  0.17575807690853384  0.8147794005783606  0.23418646986644398  1.0000
  H   H5        1.0  0.6196964141454555  0.6805730686142747  0.7187933417151013  1.0000
  H   H6        1.0  0.38030358546548887  0.3194269318784585  0.28120665862430705  1.0000
  H   H7        1.0  0.45209134141989754  0.051036740210948756  0.6511038331223322  1.0000
  H   H8        1.0  0.5479086581910468  0.9489632602817845  0.348896167217076  1.0000
  H   H9        1.0  0.3033150334162185  0.08350965576027822  0.4928217110784817  1.0000
  H   H10       1.0  0.6966849661947259  0.9164903447324549  0.5071782892609267  1.0000
  H   H11       1.0  0.36884938415662094  0.35693934001047595  0.7289861081872485  1.0000
  H   H12       1.0  0.6311506151961506  0.6430606603849343  0.2710138914904703  1.0000
  H   H13       1.0  0.12897038841000996  0.5623726798570591  0.6551436010563598  1.0000
  H   H14       1.0  0.8710296136687395  0.4376273206420991  0.34485639927734635  1.0000
  H   H15       1.0  0.05361283297518816  0.27253491456255435  0.4089828119031898  1.0000
  H   H16       1.0  0.9463871691035614  0.7274650859366039  0.5910171884305164  1.0000
  C   C1        1.0  0.13141653320275679  0.9094916911674382  0.8848998327383195  1.0000
  C   C2        1.0  0.8685834681920889  0.09050830806451618  0.11510016693832005  1.0000
  C   C3        1.0  0.07646546817563551  0.05443484247575677  0.85804401012879  1.0000
  C   C4        1.0  0.923534533477383  0.9455651568535208  0.14195599020953908  1.0000
  C   C5        1.0  0.8640763516637707  0.07000339927005847  0.7837761976404828  1.0000
  C   C6        1.0  0.13592364794717363  0.9299966012226747  0.21622380269892552  1.0000
  C   C7        1.0  0.7515205522848959  0.7860081306173626  0.7574270405399557  1.0000
  C   C8        1.0  0.24847944936812272  0.21399186871191478  0.24257295979837326  1.0000
  C   C9        1.0  0.963908933255682  0.776941598339066  0.832558793461299  1.0000
  C   C10       1.0  0.03609106635526231  0.2230584021536672  0.16744120687810923  1.0000
  C   C11       1.0  0.6989887473904338  0.9337705022310077  0.7327035138117669  1.0000
  C   C12       1.0  0.30101125196233774  0.06622949816440243  0.26729648586595195  1.0000
  C   C13       1.0  0.07138966830771214  0.43950572591869086  0.5237595516360604  1.0000
  C   C14       1.0  0.9286103330871336  0.5604942733132635  0.47624044804057936  1.0000
  C   C15       1.0  0.2593126421830409  0.19098626574293784  0.5269289644031088  1.0000
  C   C16       1.0  0.7406873570021727  0.8090137335799147  0.4730710359409224  1.0000
  C   C17       1.0  0.2978433310204597  0.34311621700587236  0.6577333952822614  1.0000
  C   C18       1.0  0.7021566706325589  0.6568837823234052  0.3422666050560676  1.0000
  C   C19       1.0  0.16317696473358434  0.45878250913104207  0.6154707080687788  1.0000
  C   C20       1.0  0.8368230369194343  0.5412174901982355  0.38452929226955024  1.0000
  C   C21       1.0  0.12173825501212082  0.3000701947213081  0.4795000551020329  1.0000
  C   C22       1.0  0.87826174391492  0.6999298045042215  0.5204999445803088  1.0000
  N   N1        1.0  0.34607933692831333  0.21052007153905947  0.6144863363407969  1.0000
  N   N2        1.0  0.6539206647247052  0.789479927790218  0.3855136639975321  1.0000
  O   O1        1.0  0.48979045278710187  0.9386912203053299  0.659643581019978  1.0000
  O   O2        1.0  0.5102095488659167  0.06130877902394768  0.34035641931835114  1.0000
  Br  Br1       1.0  0.31178876825317675  0.23976229194891197  0.9248311202582333  1.0000
  Br  Br2       1.0  0.6882112338255727  0.7602377085502463  0.07516888007547294  1.0000
  Br  Br3       1.0  0.03277882298136327  0.5751735067181049  0.8649138444801155  1.0000
  Br  Br4       1.0  0.9672211763714084  0.4248264936773054  0.13508615519760334  1.0000
