data_image0
_chemical_formula_structural       H12C18N2O6Cl4
_chemical_formula_sum              "H12 C18 N2 O6 Cl4"
_cell_length_a       3.71918831322514
_cell_length_b       10.252052802788288
_cell_length_c       13.373747272078614
_cell_angle_alpha    68.86379051845348
_cell_angle_beta     85.26332383284937
_cell_angle_gamma    80.58396876892783

_space_group_name_H-M_alt    "P 1"
_space_group_IT_number       1

loop_
  _space_group_symop_operation_xyz
  'x, y, z'

loop_
  _atom_site_type_symbol
  _atom_site_label
  _atom_site_symmetry_multiplicity
  _atom_site_fract_x
  _atom_site_fract_y
  _atom_site_fract_z
  _atom_site_occupancy
  H   H1        1.0  0.6555178709294973  0.09071967776434678  0.498384023282739  1.0000
  H   H2        1.0  0.34448212886332596  0.9092803225993008  0.5016159768465814  1.0000
  H   H3        1.0  0.9260703557658682  0.3993932261725333  0.6174938872408432  1.0000
  H   H4        1.0  0.0739296440269552  0.6006067741911142  0.3825061128884774  1.0000
  H   H5        1.0  0.9805785599698351  0.9920570659931196  0.9003627334920911  1.0000
  H   H6        1.0  0.019421439890734218  0.007942934746017188  0.09963726583530369  1.0000
  H   H7        1.0  0.20177228056771002  0.3763803491406566  0.8593876441811016  1.0000
  H   H8        1.0  0.7982277192251134  0.6236196512229909  0.14061235594821897  1.0000
  H   H9        1.0  0.472618892200115  0.24663048313046773  0.06169417095897205  1.0000
  H   H10       1.0  0.5273811075927084  0.7533695172331796  0.9383058291703485  1.0000
  H   H11       1.0  0.7253774394109025  0.35624300045238205  0.17764005249399217  1.0000
  H   H12       1.0  0.27462256038192073  0.6437569999112654  0.8223599476353284  1.0000
  C   C1        1.0  0.7339585453754233  0.11745854345464773  0.564324475878936  1.0000
  C   C2        1.0  0.266041454870345  0.8825414559211846  0.43567552424841743  1.0000
  C   C3        1.0  0.7825732043877068  0.25618014988727994  0.547593933253534  1.0000
  C   C4        1.0  0.21742679547286262  0.743819850851857  0.4524060660738607  1.0000
  C   C5        1.0  0.9338796877962645  0.18862791710676405  0.7331644502488627  1.0000
  C   C6        1.0  0.06612031244950385  0.8113720822690683  0.26683554987849084  1.0000
  C   C7        1.0  0.8789012953136156  0.047562470557700756  0.7531633486078662  1.0000
  C   C8        1.0  0.1210987049998985  0.9524375291936211  0.2468366507175614  1.0000
  C   C9        1.0  0.7813150332824463  0.015141288326208747  0.6659450354357003  1.0000
  C   C10       1.0  0.21868496696332185  0.9848587110496236  0.3340549646916532  1.0000
  C   C11       1.0  0.8845386535058524  0.2919458523148524  0.6306399240650573  1.0000
  C   C12       1.0  0.11546134673991572  0.70805414706098  0.36936007606229604  1.0000
  C   C13       1.0  0.045581285731700893  0.22439596005782156  0.8223373430565843  1.0000
  C   C14       1.0  0.9544187140611224  0.7756040403058257  0.17766265707273624  1.0000
  C   C15       1.0  0.4863209920524903  0.35967436962091415  0.034189321219506304  1.0000
  C   C16       1.0  0.5136790081932776  0.6403256297549185  0.9658106789078471  1.0000
  C   C17       1.0  0.623495803133872  0.42077876120346275  0.09810482893305794  1.0000
  C   C18       1.0  0.3765041966589513  0.5792212391601848  0.9018951711962625  1.0000
  N   N1        1.0  0.36329632079103524  0.4398704794817224  0.9362755578221736  1.0000
  N   N2        1.0  0.6367036790017881  0.560129520881925  0.06372444230714687  1.0000
  O   O1        1.0  0.9169811741020794  0.9456860834120245  0.8501941075174618  1.0000
  O   O2        1.0  0.08301882569074417  0.054313916951623034  0.14980589261185856  1.0000
  O   O3        1.0  0.08208030196590514  0.1355410003402436  0.9150774295113928  1.0000
  O   O4        1.0  0.917919698279863  0.864458999035589  0.08492257061596052  1.0000
  O   O5        1.0  0.10481237133732824  0.356674258983671  0.7960461262948091  1.0000
  O   O6        1.0  0.8951876284554952  0.6433257413799763  0.20395387383451147  1.0000
  Cl  Cl1       1.0  0.7171841120319931  0.8442522457985397  0.6862851018500844  1.0000
  Cl  Cl2       1.0  0.2828158877608302  0.15574775456510767  0.31371489827923615  1.0000
  Cl  Cl3       1.0  0.7118736080586856  0.3843311020218932  0.4216649608620617  1.0000
  Cl  Cl4       1.0  0.28812639218708236  0.6156688973539395  0.5783350392652917  1.0000
