data_image0
_chemical_formula_structural       H48C72N8O24I16
_chemical_formula_sum              "H48 C72 N8 O24 I16"
_cell_length_a       27.657479009713033
_cell_length_b       4.65324258758507
_cell_length_c       17.47794978987406
_cell_angle_alpha    90.0
_cell_angle_beta     95.883251998504
_cell_angle_gamma    90.0

_space_group_name_H-M_alt    "P 1"
_space_group_IT_number       1

loop_
  _space_group_symop_operation_xyz
  'x, y, z'

loop_
  _atom_site_type_symbol
  _atom_site_label
  _atom_site_symmetry_multiplicity
  _atom_site_fract_x
  _atom_site_fract_y
  _atom_site_fract_z
  _atom_site_occupancy
  H   H1        1.0  0.7956669786660192  0.5080492915429332  0.22018577120333735  1.0000
  H   H2        1.0  0.2043330212755002  0.5080492915429332  0.279814228671208  1.0000
  H   H3        1.0  0.29566697887976034  0.008049292357963755  0.22018577151537183  1.0000
  H   H4        1.0  0.7043330214610605  0.008049292357963755  0.2798142289335031  1.0000
  H   H5        1.0  0.2043330212452005  0.49195070682700565  0.7798142285954928  1.0000
  H   H6        1.0  0.7956669786357194  0.49195070682700565  0.7201857711276222  1.0000
  H   H7        1.0  0.7043330214307608  0.9919507081610142  0.7798142288577878  1.0000
  H   H8        1.0  0.29566697884946064  0.9919507081610142  0.7201857714396566  1.0000
  H   H9        1.0  0.8512415983057352  0.01930241080480912  0.4161909577641869  1.0000
  H   H10       1.0  0.14875840167357524  0.01930241080480912  0.08380904268553684  1.0000
  H   H11       1.0  0.3512415984816854  0.5193024099897785  0.416190957501043  1.0000
  H   H12       1.0  0.6487584018213446  0.5193024099897785  0.0838090423726535  1.0000
  H   H13       1.0  0.1487584016432755  0.9806975897141688  0.5838090426098216  1.0000
  H   H14       1.0  0.8512415982754354  0.9806975897141688  0.9161909576884717  1.0000
  H   H15       1.0  0.6487584017910448  0.48069759052919936  0.5838090422969382  1.0000
  H   H16       1.0  0.35124159845138564  0.48069759052919936  0.9161909574253276  1.0000
  H   H17       1.0  0.9402697990756596  0.5380750740741874  0.4375715007402933  1.0000
  H   H18       1.0  0.059730200865859916  0.5380750740741874  0.062428499134252066  1.0000
  H   H19       1.0  0.44026979892789014  0.038075074889217984  0.4375715010531766  1.0000
  H   H20       1.0  0.5597302010136292  0.038075074889217984  0.062428498821368736  1.0000
  H   H21       1.0  0.05973020083556018  0.46192492429575144  0.5624284990585368  1.0000
  H   H22       1.0  0.9402697990453598  0.46192492429575144  0.937571500664578  1.0000
  H   H23       1.0  0.5597302010211205  0.9619249256297598  0.5624284993208318  1.0000
  H   H24       1.0  0.440269799259101  0.9619249256297598  0.9375715009766126  1.0000
  H   H25       1.0  0.9446911614295086  0.22863624235678212  0.23310006477124598  1.0000
  H   H26       1.0  0.05530883854980192  0.22863624235678212  0.2668999356784778  1.0000
  H   H27       1.0  0.44469116160545863  0.7286362415417516  0.233100064508102  1.0000
  H   H28       1.0  0.5553088383360608  0.7286362415417516  0.2668999353664433  1.0000
  H   H29       1.0  0.05530883851950219  0.7713637581621958  0.7668999356027625  1.0000
  H   H30       1.0  0.9446911613992088  0.7713637581621958  0.7331000646955307  1.0000
  H   H31       1.0  0.555308838305761  0.2713637568281873  0.7668999352907281  1.0000
  H   H32       1.0  0.444691161575159  0.2713637568281873  0.7331000644323867  1.0000
  H   H33       1.0  0.010204655877103657  0.7916363247057245  0.3745007552553343  1.0000
  H   H34       1.0  0.9897953441022067  0.7916363247057245  0.12549924519438943  1.0000
  H   H35       1.0  0.5102046556633625  0.29163632337171597  0.37450075494329993  1.0000
  H   H36       1.0  0.4897953442781569  0.29163632337171597  0.12549924493124548  1.0000
  H   H37       1.0  0.9897953444334175  0.20836367581325344  0.6254992451178253  1.0000
  H   H38       1.0  0.010204655846803938  0.20836367581325344  0.8745007551796191  1.0000
  H   H39       1.0  0.4897953442478572  0.7083636749982228  0.6254992448555302  1.0000
  H   H40       1.0  0.5102046556330627  0.7083636749982228  0.8745007548675846  1.0000
  H   H41       1.0  0.0631173991280874  0.20284805750689733  0.42862555865977436  1.0000
  H   H42       1.0  0.936882600813432  0.20284805750689733  0.07137444121477098  1.0000
  H   H43       1.0  0.5631173989521372  0.7028480566918668  0.4286255589229183  1.0000
  H   H44       1.0  0.4368826009893822  0.7028480566918668  0.07137444095162702  1.0000
  H   H45       1.0  0.9368826007831322  0.7971519430120806  0.5713744411390557  1.0000
  H   H46       1.0  0.06311739909778767  0.7971519430120806  0.9286255585840589  1.0000
  H   H47       1.0  0.4368826009590825  0.2971519416780721  0.5713744408759117  1.0000
  H   H48       1.0  0.563117399283348  0.2971519416780721  0.9286255588463542  1.0000
  C   C1        1.0  0.8201969049478847  0.7473071894591884  0.3235673979283931  1.0000
  C   C2        1.0  0.17980309499363473  0.7473071894591884  0.17643260194615223  1.0000
  C   C3        1.0  0.32019690516162586  0.247307190274219  0.3235673982404276  1.0000
  C   C4        1.0  0.6798030948176845  0.247307190274219  0.1764326022092962  1.0000
  C   C5        1.0  0.179803094963335  0.25269281105978947  0.6764326018704369  1.0000
  C   C6        1.0  0.820196904917585  0.25269281105978947  0.8235673978526777  1.0000
  C   C7        1.0  0.6798030951488953  0.7526928102447589  0.6764326021327319  1.0000
  C   C8        1.0  0.32019690513132615  0.7526928102447589  0.8235673981647122  1.0000
  C   C9        1.0  0.888122146467753  0.06692875863186584  0.3143576382007185  1.0000
  C   C10       1.0  0.11187785351155739  0.06692875863186584  0.1856423622490053  1.0000
  C   C11       1.0  0.38812214664370315  0.5669287578168353  0.31435763793757454  1.0000
  C   C12       1.0  0.6118778532978162  0.5669287578168353  0.18564236193697084  1.0000
  C   C13       1.0  0.1118778534812577  0.9330712418871121  0.68564236217329  1.0000
  C   C14       1.0  0.8881221464374534  0.9330712418871121  0.8143576381250033  1.0000
  C   C15       1.0  0.6118778536290271  0.43307124270214264  0.6856423618604067  1.0000
  C   C16       1.0  0.38812214661340344  0.43307124270214264  0.8143576378618592  1.0000
  C   C17       1.0  0.8912233977670059  0.9795290196476719  0.23721054981580347  1.0000
  C   C18       1.0  0.10877660217451357  0.9795290196476719  0.2627894500587419  1.0000
  C   C19       1.0  0.3912233979429561  0.47952901831366346  0.2372105495526595  1.0000
  C   C20       1.0  0.6087766023600738  0.47952901831366346  0.26278945032103695  1.0000
  C   C21       1.0  0.10877660218200479  0.020470980871305913  0.762789450558205  1.0000
  C   C22       1.0  0.8912233977367062  0.020470980871305913  0.7372105497400883  1.0000
  C   C23       1.0  0.6087766023297742  0.5204709800562753  0.7627894502453217  1.0000
  C   C24       1.0  0.39122339791265637  0.5204709800562753  0.7372105494769442  1.0000
  C   C25       1.0  0.8217812030288638  0.6629052541189068  0.24681370758070903  1.0000
  C   C26       1.0  0.17821879691265577  0.6629052541189068  0.2531862922938363  1.0000
  C   C27       1.0  0.32178120320481385  0.16290525493393732  0.24681370731756505  1.0000
  C   C28       1.0  0.6782187967367057  0.16290525493393732  0.25318629255698033  1.0000
  C   C29       1.0  0.17821879688235603  0.33709474640007114  0.7531862922181211  1.0000
  C   C30       1.0  0.821781202998564  0.33709474640007114  0.7468137075049938  1.0000
  C   C31       1.0  0.678218796706406  0.8370947455850405  0.753186292481265  1.0000
  C   C32       1.0  0.32178120321230513  0.8370947455850405  0.7468137078170283  1.0000
  C   C33       1.0  0.8526626384429158  0.9493817648335181  0.35702045297375673  1.0000
  C   C34       1.0  0.14733736153639465  0.9493817648335181  0.14297954747596703  1.0000
  C   C35       1.0  0.35266263825735544  0.44938176564854865  0.35702045271146166  1.0000
  C   C36       1.0  0.6473373616841641  0.44938176564854865  0.14297954716308373  1.0000
  C   C37       1.0  0.14733736150609494  0.05061823353642078  0.6429795474002518  1.0000
  C   C38       1.0  0.852662638412616  0.05061823353642078  0.8570204528980414  1.0000
  C   C39       1.0  0.6473373616538644  0.5506182348704293  0.6429795470873684  1.0000
  C   C40       1.0  0.35266263822705574  0.5506182348704293  0.8570204526357463  1.0000
  C   C41       1.0  0.8568159717321476  0.780331923740182  0.20414718041342633  1.0000
  C   C42       1.0  0.1431840282471628  0.780331923740182  0.2958528200362974  1.0000
  C   C43       1.0  0.35681597154658734  0.2803319245552126  0.2041471801511312  1.0000
  C   C44       1.0  0.6431840283949322  0.2803319245552126  0.2958528197234141  1.0000
  C   C45       1.0  0.1431840282168631  0.21966807677879588  0.7958528199605821  1.0000
  C   C46       1.0  0.8568159717018479  0.21966807677879588  0.704147180337711  1.0000
  C   C47       1.0  0.6431840283646324  0.7196680759637654  0.7958528196476987  1.0000
  C   C48       1.0  0.3568159715162876  0.7196680759637654  0.7041471800754159  1.0000
  C   C49       1.0  0.9220000776857408  0.28793658933121447  0.34783262635689066  1.0000
  C   C50       1.0  0.07799992225577872  0.28793658933121447  0.15216737351765472  1.0000
  C   C51       1.0  0.4220000778994819  0.7879365885161839  0.3478326266689251  1.0000
  C   C52       1.0  0.5779999220420377  0.7879365885161839  0.15216737320562024  1.0000
  C   C53       1.0  0.077999922225479  0.7120634111877635  0.6521673734419393  1.0000
  C   C54       1.0  0.922000077693232  0.7120634111877635  0.8478326268563537  1.0000
  C   C55       1.0  0.5779999223732484  0.21206341200279402  0.652167373129056  1.0000
  C   C56       1.0  0.42200007786918214  0.21206341200279402  0.8478326265932099  1.0000
  C   C57       1.0  0.00599687682696991  0.8859536919478588  0.4305443336038586  1.0000
  C   C58       1.0  0.9940031231145496  0.8859536919478588  0.06945566627068678  1.0000
  C   C59       1.0  0.5059968766510197  0.38595369276288927  0.4305443338670025  1.0000
  C   C60       1.0  0.4940031232904997  0.38595369276288927  0.06945566600754283  1.0000
  C   C61       1.0  0.9940031230842499  0.11404630857111919  0.5694556661949715  1.0000
  C   C62       1.0  0.005996876834461135  0.11404630857111919  0.9305443341033218  1.0000
  C   C63       1.0  0.4940031232602  0.6140463077560886  0.5694556659318275  1.0000
  C   C64       1.0  0.50599687662072  0.6140463077560886  0.9305443337912872  1.0000
  C   C65       1.0  0.03490047963907158  0.1123452539084806  0.46052761270975595  1.0000
  C   C66       1.0  0.9650995203402388  0.1123452539084806  0.039472387739967855  1.0000
  C   C67       1.0  0.5349004794253305  0.6123452530934501  0.4605276123977215  1.0000
  C   C68       1.0  0.46509952051618897  0.6123452530934501  0.0394723874768239  1.0000
  C   C69       1.0  0.9650995203099391  0.8876547466104974  0.5394723876642527  1.0000
  C   C70       1.0  0.03490047960877186  0.8876547466104974  0.9605276126340406  1.0000
  C   C71       1.0  0.4650995204858893  0.3876547452764888  0.5394723874011086  1.0000
  C   C72       1.0  0.5349004793950307  0.3876547452764888  0.9605276123220061  1.0000
  N   N1        1.0  0.971480643560919  0.7765400732901162  0.47048061944456837  1.0000
  N   N2        1.0  0.02851935638060044  0.7765400732901162  0.029519380429977  1.0000
  N   N3        1.0  0.4714806437368692  0.2765400719561077  0.47048061918142436  1.0000
  N   N4        1.0  0.5285193565661608  0.2765400719561077  0.029519380692272116  1.0000
  N   N5        1.0  0.028519356350300715  0.2234599272288617  0.5295193803542617  1.0000
  N   N6        1.0  0.9714806435306194  0.2234599272288617  0.9704806193688531  1.0000
  N   N7        1.0  0.528519356535861  0.7234599285628702  0.5295193806165569  1.0000
  N   N8        1.0  0.47148064374436044  0.7234599285628702  0.9704806196808876  1.0000
  O   O1        1.0  0.9546727762440042  0.39198935272932484  0.3109058016163591  1.0000
  O   O2        1.0  0.04532722369751536  0.39198935272932484  0.18909419825818627  1.0000
  O   O3        1.0  0.4546727760584438  0.8919893519142942  0.310905801354064  1.0000
  O   O4        1.0  0.5453272238830756  0.8919893519142942  0.18909419852048137  1.0000
  O   O5        1.0  0.045327223705006574  0.6080106477896532  0.6890941987576493  1.0000
  O   O6        1.0  0.9546727762137044  0.6080106477896532  0.8109058015406437  1.0000
  O   O7        1.0  0.545327223852776  0.10801064860468368  0.689094198444766  1.0000
  O   O8        1.0  0.4546727763896546  0.10801064860468368  0.8109058012774998  1.0000
  O   O9        1.0  0.9157493027533014  0.36757283717882905  0.41829401577611086  1.0000
  O   O10       1.0  0.08425069754972866  0.36757283717882905  0.08170598409758563  1.0000
  O   O11       1.0  0.415749302567741  0.8675728363637984  0.4182940155138158  1.0000
  O   O12       1.0  0.5842506973737784  0.8675728363637984  0.0817059843607296  1.0000
  O   O13       1.0  0.08425069755721987  0.6324271633401488  0.5817059845970488  1.0000
  O   O14       1.0  0.9157493027230016  0.6324271633401488  0.9182940157003955  1.0000
  O   O15       1.0  0.5842506973434787  0.13242716200614038  0.5817059842850143  1.0000
  O   O16       1.0  0.41574930253744125  0.13242716200614038  0.9182940154381004  1.0000
  O   O17       1.0  0.9256248017585845  0.08660483789845666  0.19656844718048908  1.0000
  O   O18       1.0  0.0743751981829349  0.08660483789845666  0.3034315526940563  1.0000
  O   O19       1.0  0.4256248019345347  0.5866048370834261  0.1965684469173451  1.0000
  O   O20       1.0  0.5743751980069847  0.5866048370834261  0.30343155295720026  1.0000
  O   O21       1.0  0.07437519815263517  0.9133951626205213  0.803431552618341  1.0000
  O   O22       1.0  0.9256248017282848  0.9133951626205213  0.6965684471047738  1.0000
  O   O23       1.0  0.5743751983381955  0.41339516128651277  0.8034315528806361  1.0000
  O   O24       1.0  0.425624801904235  0.41339516128651277  0.6965684468416299  1.0000
  I   I1        1.0  0.8560300708963906  0.6754545783591256  0.08715727629137779  1.0000
  I   I2        1.0  0.14396992904512887  0.6754545783591256  0.4128427235831676  1.0000
  I   I3        1.0  0.35603007074862125  0.17545457917415616  0.0871572766042611  1.0000
  I   I4        1.0  0.6439699292306892  0.17545457917415616  0.4128427238454627  1.0000
  I   I5        1.0  0.14396992937633962  0.32454542215985227  0.9128427235066034  1.0000
  I   I6        1.0  0.856030070866091  0.32454542215985227  0.5871572762156626  1.0000
  I   I7        1.0  0.6439699292003894  0.8245454213448218  0.9128427237697474  1.0000
  I   I8        1.0  0.35603007071832155  0.8245454213448218  0.5871572765285459  1.0000
  I   I9        1.0  0.7674329124837015  0.572950964798858  0.3890475410330365  1.0000
  I   I10       1.0  0.23256708749560895  0.572950964798858  0.11095245941668729  1.0000
  I   I11       1.0  0.26743291229814115  0.0729509656138885  0.3890475407707414  1.0000
  I   I12       1.0  0.7325670876433783  0.0729509656138885  0.11095245910380397  1.0000
  I   I13       1.0  0.23256708782681967  0.42704903572011993  0.6109524593401232  1.0000
  I   I14       1.0  0.7674329124534017  0.42704903572011993  0.8890475409573212  1.0000
  I   I15       1.0  0.7325670876130785  0.9270490349050894  0.6109524590280887  1.0000
  I   I16       1.0  0.26743291226784144  0.9270490349050894  0.8890475406950261  1.0000
