data_image0
_chemical_formula_structural       H32C32N6O12S4
_chemical_formula_sum              "H32 C32 N6 O12 S4"
_cell_length_a       7.185772502751411
_cell_length_b       8.473565796005275
_cell_length_c       14.86173062159684
_cell_angle_alpha    83.16429893157466
_cell_angle_beta     79.78346658996678
_cell_angle_gamma    70.69886373936778

_space_group_name_H-M_alt    "P 1"
_space_group_IT_number       1

loop_
  _space_group_symop_operation_xyz
  'x, y, z'

loop_
  _atom_site_type_symbol
  _atom_site_label
  _atom_site_symmetry_multiplicity
  _atom_site_fract_x
  _atom_site_fract_y
  _atom_site_fract_z
  _atom_site_occupancy
  H   H1        1.0  0.000368895964513616  0.6538589273319244  0.4371344612639451  1.0000
  H   H2        1.0  0.9996311034385409  0.34614107335721594  0.5628655388018889  1.0000
  H   H3        1.0  0.4518455943637507  0.3311216515849366  0.2513611035353558  1.0000
  H   H4        1.0  0.5481544064523063  0.6688783491069904  0.7486388964106861  1.0000
  H   H5        1.0  0.933694870086924  0.8000094982961151  0.954801266697149  1.0000
  H   H6        1.0  0.06630512979132053  0.19999050113996814  0.04519873341603689  1.0000
  H   H7        1.0  0.16695821420664295  0.7346376381111099  0.8834039864146016  1.0000
  H   H8        1.0  0.8330417856716016  0.26536236132497315  0.11659601369858417  1.0000
  H   H9        1.0  0.10580642800709575  0.9130822421062319  0.94638608600948  1.0000
  H   H10       1.0  0.8941935718711488  0.08691775732985131  0.0536139141037058  1.0000
  H   H11       1.0  0.9469200175875947  0.29513746248407  0.2677782304781384  1.0000
  H   H12       1.0  0.05307998182093485  0.7048625381993617  0.7322217689147532  1.0000
  H   H13       1.0  0.19337111081119193  0.8630842060359915  0.12028703164106132  1.0000
  H   H14       1.0  0.8066288890670525  0.13691579340009175  0.8797129684721245  1.0000
  H   H15       1.0  0.7762526584558532  0.529561501633745  0.1628026180866089  1.0000
  H   H16       1.0  0.22374734283539358  0.47043849780512464  0.8371973819067848  1.0000
  H   H17       1.0  0.05711794709118082  0.356267264594445  0.40540953967404947  1.0000
  H   H18       1.0  0.9428820527925383  0.6437327348359297  0.5945904597661941  1.0000
  H   H19       1.0  0.2948739570933081  0.11882820990318475  0.3454780847614069  1.0000
  H   H20       1.0  0.7051260423097464  0.8811717907859558  0.6545219153044272  1.0000
  H   H21       1.0  0.4329159655377666  0.11078810953297553  0.4352352985904365  1.0000
  H   H22       1.0  0.5670840343404778  0.8892118899031076  0.5647647015227493  1.0000
  H   H23       1.0  0.42591741430060354  0.9211715808188666  0.39400445513127197  1.0000
  H   H24       1.0  0.5740825855776408  0.0788284186172167  0.6059955449819139  1.0000
  H   H25       1.0  0.5741920974086546  0.9307061755931899  0.07179617546254934  1.0000
  H   H26       1.0  0.42580790246958966  0.06929382384289338  0.9282038246506364  1.0000
  H   H27       1.0  0.32118912592807064  0.6645887778857776  0.5034588453153933  1.0000
  H   H28       1.0  0.6788108739501738  0.33541122155030556  0.49654115479779254  1.0000
  H   H29       1.0  0.5662376511291045  0.6517917140810994  0.4577713210481395  1.0000
  H   H30       1.0  0.4337623487546145  0.34820828534927534  0.5422286783921039  1.0000
  H   H31       1.0  0.3469608000607821  0.6460832344207212  0.26016454740332223  1.0000
  H   H32       1.0  0.6530392007552749  0.35391676627120583  0.7398354525427197  1.0000
  C   C1        1.0  0.7938220537186287  0.7222896511692078  0.2396965915837796  1.0000
  C   C2        1.0  0.2061779461596157  0.2777103482668753  0.7603034085294063  1.0000
  C   C3        1.0  0.9536840018850059  0.6239173355077632  0.3772449115939793  1.0000
  C   C4        1.0  0.0463159979932384  0.37608266392832  0.6227550885192066  1.0000
  C   C5        1.0  0.09236719908038159  0.787541584543381  0.9491241213363354  1.0000
  C   C6        1.0  0.9076328007978629  0.21245841489270212  0.050875878776850465  1.0000
  C   C7        1.0  0.33627819958724287  0.4585396657896333  0.13707373656807592  1.0000
  C   C8        1.0  0.6637217998158117  0.5414603348995072  0.8629262634977581  1.0000
  C   C9        1.0  0.18251227243170312  0.6836672800539989  0.02812204294691919  1.0000
  C   C10       1.0  0.8174877274465414  0.3163327193820842  0.9718779571662667  1.0000
  C   C11       1.0  0.4788627597390105  0.15604077457529647  0.15669813484151715  1.0000
  C   C12       1.0  0.5211372396640442  0.8439592261138439  0.8433018652243168  1.0000
  C   C13       1.0  0.5867881621200169  0.0191127312693182  0.21511240301712067  1.0000
  C   C14       1.0  0.4132118377637023  0.9808872681610564  0.7848875964231228  1.0000
  C   C15       1.0  0.9239515172027338  0.4245263678547229  0.28109318658999793  1.0000
  C   C16       1.0  0.07604848267551059  0.5754736315813602  0.718906813523188  1.0000
  C   C17       1.0  0.22266450398803012  0.7341664306633081  0.10469870148014826  1.0000
  C   C18       1.0  0.7773354973032166  0.2658335687755617  0.8953012985132454  1.0000
  C   C19       1.0  0.8294321463190559  0.5550316872234322  0.22198973787778348  1.0000
  C   C20       1.0  0.17056785497219082  0.44496831221543764  0.7780102621156102  1.0000
  C   C21       1.0  0.8624757772544799  0.7534871391666764  0.31697308372966865  1.0000
  C   C22       1.0  0.13752422214857468  0.246512861522464  0.6830269163361654  1.0000
  C   C23       1.0  0.9843021197322794  0.4587299693220395  0.35910557905706986  1.0000
  C   C24       1.0  0.01569787967625003  0.5412700313613924  0.6408944203358218  1.0000
  C   C25       1.0  0.6782674391446079  0.8609975880602148  0.18335047639368846  1.0000
  C   C26       1.0  0.3217325621521136  0.13900241137294653  0.8166495229267628  1.0000
  C   C27       1.0  0.42994482824412017  0.04933351160618193  0.3753612670739487  1.0000
  C   C28       1.0  0.5700551711589346  0.9506664890829585  0.6246387329918854  1.0000
  C   C29       1.0  0.42937243905945094  0.5434517961579914  0.3779532982086766  1.0000
  C   C30       1.0  0.5706275608187934  0.45654820327809187  0.6220467019045094  1.0000
  C   C31       1.0  0.4615350253761317  0.5792332171203305  0.4698921278005794  1.0000
  C   C32       1.0  0.538464974026923  0.42076678356880987  0.5301078722652547  1.0000
  N   N1        1.0  0.6012950535424191  0.05385182956544744  0.30471492418534374  1.0000
  N   N2        1.0  0.398704947273638  0.9461481711264796  0.6952850757606981  1.0000
  N   N3        1.0  0.3084267392035049  0.6076144506488885  0.16606335910599343  1.0000
  N   N4        1.0  0.6915732601995499  0.39238555004025183  0.8339366409598405  1.0000
  N   N5        1.0  0.42291621309083166  0.31363240584232116  0.18724631039190173  1.0000
  N   N6        1.0  0.577083786312223  0.6863675948468193  0.8127536896739324  1.0000
  O   O1        1.0  0.44367749830618153  0.13228274239921836  0.07982407808987978  1.0000
  O   O2        1.0  0.5563225015720628  0.8677172570368649  0.9201759220233061  1.0000
  O   O3        1.0  0.6662223651532098  0.8255083257774078  0.09980018343017004  1.0000
  O   O4        1.0  0.33377763473050914  0.17449167365296686  0.9001998160100735  1.0000
  O   O5        1.0  0.9639717499684445  0.02329648872721209  0.2656120970942036  1.0000
  O   O6        1.0  0.036028251322802275  0.9767035107116577  0.7343879028991901  1.0000
  O   O7        1.0  0.8184207067343413  0.9855307774537799  0.4294880775097124  1.0000
  O   O8        1.0  0.1815792926687136  0.01446922323536051  0.5705119225561216  1.0000
  O   O9        1.0  0.3690904913939301  0.678861845018244  0.32303108712898554  1.0000
  O   O10       1.0  0.6309095080091246  0.3211381556708965  0.6769689129368485  1.0000
  O   O11       1.0  0.456839449672328  0.3989334044053503  0.35746256330997006  1.0000
  O   O12       1.0  0.5431605502059164  0.6010665950307329  0.6425374368032158  1.0000
  S   S1        1.0  0.25687739579934404  0.46602700990131635  0.03282921850996562  1.0000
  S   S2        1.0  0.7431226036037107  0.5339729907878241  0.9671707815558683  1.0000
  S   S3        1.0  0.8271318976353912  0.9647845930186573  0.33383937089833554  1.0000
  S   S4        1.0  0.1728681022428532  0.03521540641742586  0.6661606292148502  1.0000
