data_image0
_chemical_formula_structural       H22C22N2O4
_chemical_formula_sum              "H22 C22 N2 O4"
_cell_length_a       4.842827516665881
_cell_length_b       8.48386098986048
_cell_length_c       11.765520815518888
_cell_angle_alpha    85.60955571198073
_cell_angle_beta     78.73247612399544
_cell_angle_gamma    83.94442217175897

_space_group_name_H-M_alt    "P 1"
_space_group_IT_number       1

loop_
  _space_group_symop_operation_xyz
  'x, y, z'

loop_
  _atom_site_type_symbol
  _atom_site_label
  _atom_site_symmetry_multiplicity
  _atom_site_fract_x
  _atom_site_fract_y
  _atom_site_fract_z
  _atom_site_occupancy
  H   H1        1.0  0.12726531051884266  0.4276682156536985  0.5726889401188359  1.0000
  H   H2        1.0  0.8727346914504777  0.5723317834715569  0.4273110596601501  1.0000
  H   H3        1.0  0.5679226996361159  0.3242144720608865  0.4426679243482637  1.0000
  H   H4        1.0  0.4320772999976045  0.675785528229867  0.5573320755566015  1.0000
  H   H5        1.0  0.6673015789110577  0.9521040609861683  0.7094936848761146  1.0000
  H   H6        1.0  0.3326984207517129  0.047895939319646925  0.29050631587536  1.0000
  H   H7        1.0  0.21736468256316535  0.06997128228872251  0.8250336220495005  1.0000
  H   H8        1.0  0.7826353170705548  0.930028718002031  0.17496637785536467  1.0000
  H   H9        1.0  0.9928724712477031  0.14562773715977256  0.4133773409538623  1.0000
  H   H10       1.0  0.007127528386017457  0.854372263130981  0.5866226589510029  1.0000
  H   H11       1.0  0.8903075612143195  0.32136626949766395  0.7764658598114115  1.0000
  H   H12       1.0  0.10969243841940066  0.6786337307930895  0.22353414009345376  1.0000
  H   H13       1.0  0.355705703680361  0.5792209353562734  0.9501401683125348  1.0000
  H   H14       1.0  0.6442942959533593  0.4207790649344803  0.04985983159233039  1.0000
  H   H15       1.0  0.16655208264846075  0.4603678199996404  0.8832868678851183  1.0000
  H   H16       1.0  0.8334479169852596  0.5396321802911133  0.11671313201974687  1.0000
  H   H17       1.0  0.3213075976694088  0.7943313187827445  0.7889993075565648  1.0000
  H   H18       1.0  0.6786924040656712  0.20566868152949827  0.21100069216518866  1.0000
  H   H19       1.0  0.10380479749986844  0.678021777938011  0.7319513221299765  1.0000
  H   H20       1.0  0.8961952021338517  0.3219782223527426  0.2680486777748887  1.0000
  H   H21       1.0  0.5159157931833294  0.853318036538931  0.016646591130893777  1.0000
  H   H22       1.0  0.4840842064794413  0.1466819637668842  0.983353409620581  1.0000
  C   C1        1.0  0.25568098440966625  0.322317445242083  0.5984504537479443  1.0000
  C   C2        1.0  0.744319015224054  0.6776825550486707  0.40154954615692096  1.0000
  C   C3        1.0  0.5043575240868663  0.26478468649784526  0.5276309775650682  1.0000
  C   C4        1.0  0.4956424755468541  0.7352153137929083  0.47236902233979694  1.0000
  C   C5        1.0  0.6621405255063127  0.1286949859969219  0.5647858925015729  1.0000
  C   C6        1.0  0.33785947415645795  0.8713050143088933  0.4352141082499019  1.0000
  C   C7        1.0  0.5553690643511733  0.05666552895634539  0.6740765760236489  1.0000
  C   C8        1.0  0.4446309353115972  0.9433344713494697  0.325923424727826  1.0000
  C   C9        1.0  0.3052975086452177  0.1217350015951738  0.7393999752648177  1.0000
  C   C10       1.0  0.6947024909885026  0.8782649986955798  0.26060002464004745  1.0000
  C   C11       1.0  0.9227542117172225  0.06907567806977095  0.49023454435866287  1.0000
  C   C12       1.0  0.07724578791649786  0.9309243222209826  0.5097654555462023  1.0000
  C   C13       1.0  0.5805911688227442  0.4956023039355522  0.7892908035718279  1.0000
  C   C14       1.0  0.41940883081097613  0.5043976963552014  0.21070919633303717  1.0000
  C   C15       1.0  0.30786552751989693  0.5560313407438165  0.8658012986030025  1.0000
  C   C16       1.0  0.6921344723480638  0.44396865835994964  0.13419870135909515  1.0000
  C   C17       1.0  0.16659589512728532  0.7059181808057039  0.81261345737147  1.0000
  C   C18       1.0  0.8334041045354853  0.2940818195001113  0.18738654338000477  1.0000
  C   C19       1.0  0.9167773206139602  0.7708640736561854  0.8905839974743361  1.0000
  C   C20       1.0  0.08322267901976003  0.2291359266345682  0.10941600243052907  1.0000
  C   C21       1.0  0.7053506627404899  0.8196180509613562  0.9565615612688352  1.0000
  C   C22       1.0  0.29464933712747093  0.18038194814241001  0.04343843869326226  1.0000
  N   N1        1.0  0.15761801555350652  0.2528377007239352  0.7028839886300413  1.0000
  N   N2        1.0  0.8423819840802137  0.7471622995668185  0.2971160112748239  1.0000
  O   O1        1.0  0.6811582771711198  0.561931054095528  0.6950745770396151  1.0000
  O   O2        1.0  0.31884172246260056  0.4380689461952256  0.3049254228652501  1.0000
  O   O3        1.0  0.7008490390799794  0.3641543637998752  0.8344295407444329  1.0000
  O   O4        1.0  0.299150962889341  0.6358456353253802  0.165570459034553  1.0000
