data_image0
_chemical_formula_structural       H58C46N8O4S2Cl2
_chemical_formula_sum              "H58 C46 N8 O4 S2 Cl2"
_cell_length_a       9.4750774379227
_cell_length_b       10.329607605412388
_cell_length_c       12.956790531898049
_cell_angle_alpha    84.24077875833862
_cell_angle_beta     85.3980990997319
_cell_angle_gamma    67.52254132614596

_space_group_name_H-M_alt    "P 1"
_space_group_IT_number       1

loop_
  _space_group_symop_operation_xyz
  'x, y, z'

loop_
  _atom_site_type_symbol
  _atom_site_label
  _atom_site_symmetry_multiplicity
  _atom_site_fract_x
  _atom_site_fract_y
  _atom_site_fract_z
  _atom_site_occupancy
  H   H1        1.0  0.4064841852212235  0.8769588755137262  0.11102637950284204  1.0000
  H   H2        1.0  0.5935158151775346  0.12304112451152377  0.8889736203904772  1.0000
  H   H3        1.0  0.4876475751480698  0.9318014310889723  0.21301646754210327  1.0000
  H   H4        1.0  0.5123524252506884  0.06819856893627756  0.7869835323512158  1.0000
  H   H5        1.0  0.4132469400738082  0.7952595651459133  0.24151423942794806  1.0000
  H   H6        1.0  0.586753059267721  0.20474043488539365  0.7584857604594383  1.0000
  H   H7        1.0  0.8219130624049753  0.753714737899541  0.01771449952873202  1.0000
  H   H8        1.0  0.17808693693655397  0.24628526213176596  0.9822855003586541  1.0000
  H   H9        1.0  0.7105773512400193  0.9118122007690846  0.07998795741789523  1.0000
  H   H10       1.0  0.2894226491587389  0.08818779925616521  0.920012042475424  1.0000
  H   H11       1.0  0.6216133511967693  0.847013892466713  0.9899679849448834  1.0000
  H   H12       1.0  0.3783866491363256  0.15298610749252248  0.010032015724866566  1.0000
  H   H13       1.0  0.16138184393494343  0.6730837547607562  0.37615277804502034  1.0000
  H   H14       1.0  0.8386181554065859  0.32691624527055063  0.6238472218423661  1.0000
  H   H15       1.0  0.835458065384092  0.4741610432205565  0.8913051552647732  1.0000
  H   H16       1.0  0.1645419339574372  0.5258389568107504  0.10869484462261306  1.0000
  H   H17       1.0  0.705836306725927  0.5880764650219683  0.4188721713749311  1.0000
  H   H18       1.0  0.29416369261560216  0.4119235350093387  0.5811278285124553  1.0000
  H   H19       1.0  0.35672522167858317  0.19309031567827228  0.16102898175213198  1.0000
  H   H20       1.0  0.6432747776629459  0.8069096843530347  0.8389710181352542  1.0000
  H   H21       1.0  0.6389647580111564  0.4181022237420411  0.33207025613365804  1.0000
  H   H22       1.0  0.36103524238760176  0.5818977762832088  0.6679297437596612  1.0000
  H   H23       1.0  0.832937952142099  0.06183180188085703  0.9818252814073352  1.0000
  H   H24       1.0  0.16706204825665907  0.938168198144393  0.018174718485984  1.0000
  H   H25       1.0  0.22930767891382856  0.8420803186830031  0.46464307372351005  1.0000
  H   H26       1.0  0.7706923214849295  0.1579196813422467  0.5353569261698091  1.0000
  H   H27       1.0  0.020461880741482044  0.9653555173095367  0.8373574775092233  1.0000
  H   H28       1.0  0.9795381195916131  0.03464448264969848  0.1626425231605268  1.0000
  H   H29       1.0  0.48953141145281  0.9284438702965468  0.44910639663160223  1.0000
  H   H30       1.0  0.5104685888802849  0.07155612966268854  0.5508936040381478  1.0000
  H   H31       1.0  0.6348900931723181  0.7886520229754366  0.5166334773925992  1.0000
  H   H32       1.0  0.36510990722644  0.2113479770498134  0.4833665225007199  1.0000
  H   H33       1.0  0.44607369626540355  0.8586457908878788  0.5725311818462985  1.0000
  H   H34       1.0  0.5539263041333546  0.14135420913737126  0.4274688180470208  1.0000
  H   H35       1.0  0.020095135397619344  0.3780693959657984  0.7462429132557752  1.0000
  H   H36       1.0  0.9799048639439097  0.6219306040655085  0.2537570866316111  1.0000
  H   H37       1.0  0.22071087911875034  0.05060306829643253  0.2740897906520696  1.0000
  H   H38       1.0  0.7792891201571156  0.94939693166886  0.7259102100117475  1.0000
  H   H39       1.0  0.05826254052891815  0.06559291442233224  0.35756873988542137  1.0000
  H   H40       1.0  0.9417374598041769  0.9344070855369031  0.6424312607843287  1.0000
  H   H41       1.0  0.22338385111316714  0.07613283183132297  0.40735174388318585  1.0000
  H   H42       1.0  0.776616149285591  0.9238671681939269  0.5926482560101334  1.0000
  H   H43       1.0  0.05424834432663848  0.30755455658916947  0.4799733951725186  1.0000
  H   H44       1.0  0.9457516560721196  0.6924454434360804  0.5200266047208006  1.0000
  H   H45       1.0  0.8907902663511479  0.30123339535421695  0.4254111658147189  1.0000
  H   H46       1.0  0.10920973299038134  0.6987666046770901  0.5745888340726674  1.0000
  H   H47       1.0  0.9427561559824159  0.45001157184868584  0.39706745329348364  1.0000
  H   H48       1.0  0.05724384441634225  0.5499884281765641  0.6029325465998356  1.0000
  H   H49       1.0  0.05282258581764673  0.25298950544910065  0.1520046137111758  1.0000
  H   H50       1.0  0.9471774145811113  0.7470104945761493  0.8479953861821433  1.0000
  H   H51       1.0  0.9353885072415028  0.4160003048441209  0.20177743018993247  1.0000
  H   H52       1.0  0.06461149315725524  0.5839996951811292  0.7982225697033867  1.0000
  H   H53       1.0  0.891525031183084  0.2641364237958598  0.2360843166223494  1.0000
  H   H54       1.0  0.108474969215674  0.7358635762293901  0.7639156832709697  1.0000
  H   H55       1.0  0.704120461299633  0.4355383605266333  0.04134715594142883  1.0000
  H   H56       1.0  0.29587953804189643  0.5644616395046737  0.9586528439459574  1.0000
  H   H57       1.0  0.5538021724885105  0.4644777313759416  0.1609391398750013  1.0000
  H   H58       1.0  0.4461978279102476  0.5355222686493083  0.8390608600183179  1.0000
  C   C1        1.0  0.4701032569811707  0.8441705136199192  0.18232691681149377  1.0000
  C   C2        1.0  0.5298967434175874  0.15582948640533067  0.8176730830818254  1.0000
  C   C3        1.0  0.7080604889330698  0.8181114722344454  0.04841588538867975  1.0000
  C   C4        1.0  0.29193951040845945  0.18188852779686152  0.9515841144987066  1.0000
  C   C5        1.0  0.6240888986641709  0.27962644651293395  0.08789172861306785  1.0000
  C   C6        1.0  0.3759111017345872  0.7203735535123159  0.9121082712802514  1.0000
  C   C7        1.0  0.3954011254528796  0.5377866938549056  0.3458367174421509  1.0000
  C   C8        1.0  0.6045988749458786  0.46221330617034423  0.6541632824511684  1.0000
  C   C9        1.0  0.28033655359979476  0.656925994375682  0.38401351448087284  1.0000
  C   C10       1.0  0.7196634467989633  0.3430740056495681  0.6159864854124463  1.0000
  C   C11       1.0  0.8768244536969878  0.3619928182202104  0.8804893102420044  1.0000
  C   C12       1.0  0.12317554670177035  0.6380071818050396  0.1195106896513148  1.0000
  C   C13       1.0  0.2147968696132969  0.31599679771031475  0.2924292128105942  1.0000
  C   C14       1.0  0.7852031307854613  0.684003202314935  0.7075707870827249  1.0000
  C   C15       1.0  0.41963915653672124  0.3541036003747047  0.22272184448272425  1.0000
  C   C16       1.0  0.5803608437963739  0.6458963995845308  0.7772781561870258  1.0000
  C   C17       1.0  0.5863579111369223  0.6089080737273787  0.4073390949453475  1.0000
  C   C18       1.0  0.413642089261836  0.39109192629787115  0.5926609049479717  1.0000
  C   C19       1.0  0.33485538597299436  0.27150091130389337  0.21562991489944805  1.0000
  C   C20       1.0  0.6651446144257636  0.7284990887213565  0.7843700849938711  1.0000
  C   C21       1.0  0.08518487550918064  0.26513074429634353  0.3161996554199562  1.0000
  C   C22       1.0  0.9148151253199508  0.7348692546803057  0.6838003444833064  1.0000
  C   C23       1.0  0.5490570382316283  0.5134087622511361  0.35779405621431837  1.0000
  C   C24       1.0  0.4509429621671298  0.4865912377741137  0.6422059436790007  1.0000
  C   C25       1.0  0.8208400628288145  0.27420426960922434  0.9470070207553369  1.0000
  C   C26       1.0  0.1791599375699435  0.7257957304160255  0.05299297913798231  1.0000
  C   C27       1.0  0.4729162787938256  0.7280258740789446  0.4466929559507468  1.0000
  C   C28       1.0  0.5270837216049324  0.2719741259463054  0.5533070439425725  1.0000
  C   C29       1.0  0.8735798810110339  0.13074125064539027  0.9300348375361382  1.0000
  C   C30       1.0  0.12642011938772435  0.8692587493798595  0.06996516235718103  1.0000
  C   C31       1.0  0.31967689388295784  0.7501040367151761  0.4342999827528279  1.0000
  C   C32       1.0  0.6803231053929082  0.2498959632501163  0.5657000179109893  1.0000
  C   C33       1.0  0.03202111315715058  0.1655824112087721  0.7832170692623324  1.0000
  C   C34       1.0  0.9679788872416076  0.8344175888164779  0.2167829306309869  1.0000
  C   C35       1.0  0.9788470360080687  0.07698100313143634  0.8486756262179873  1.0000
  C   C36       1.0  0.02115296333346037  0.9230189968998705  0.15132437366939902  1.0000
  C   C37       1.0  0.5135703333503858  0.8308505099962422  0.499221016736933  1.0000
  C   C38       1.0  0.4864296670483723  0.16914949002900764  0.5007789831563862  1.0000
  C   C39       1.0  0.9811763754322276  0.30838452591792487  0.7987878297287077  1.0000
  C   C40       1.0  0.01882362496653051  0.691615474107325  0.2012121701646115  1.0000
  C   C41       1.0  0.15096377466421876  0.1048788100578204  0.3401170087184778  1.0000
  C   C42       1.0  0.8490362257345394  0.8951211899674296  0.6598829911748414  1.0000
  C   C43       1.0  0.9874399932195097  0.33512161866848833  0.4100371763964656  1.0000
  C   C44       1.0  0.012560007179248295  0.6648783813567616  0.5899628234968536  1.0000
  C   C45       1.0  0.9857128128591439  0.30191186346540055  0.2208336978527033  1.0000
  C   C46       1.0  0.014287187539614225  0.6980881365598494  0.779166302040616  1.0000
  N   N1        1.0  0.5398611221689146  0.3698917849729907  0.1623121300281463  1.0000
  N   N2        1.0  0.4601388771726146  0.6301082150583162  0.83768786985924  1.0000
  N   N3        1.0  0.35208095516926097  0.4385076368256748  0.302870733856274  1.0000
  N   N4        1.0  0.6479190452294971  0.5614923631995752  0.6971292660370452  1.0000
  N   N5        1.0  0.22483946046524028  0.41677024768613335  0.3449448238207834  1.0000
  N   N6        1.0  0.7751605399335179  0.5832297523391166  0.6550551760725357  1.0000
  N   N7        1.0  0.7177612410415285  0.33480265883673394  0.027845837676257392  1.0000
  N   N8        1.0  0.2822387583000008  0.665197341194573  0.9721541622111288  1.0000
  O   O1        1.0  0.6240670175330983  0.6019763231486397  0.10053683745404064  1.0000
  O   O2        1.0  0.37593298180843093  0.39802367688266727  0.8994631624333457  1.0000
  O   O3        1.0  0.6156267660000737  0.16446319500244658  0.07859907263411461  1.0000
  O   O4        1.0  0.38437323327579237  0.8355368049628459  0.9214009280297025  1.0000
  S   S1        1.0  0.6550763496632331  0.7139144095665462  0.15239674865461753  1.0000
  S   S2        1.0  0.34492365073552494  0.28608559045870374  0.8476032512387016  1.0000
  Cl  Cl1       1.0  0.16340893178206972  0.09802965228769597  0.6814344686079143  1.0000
  Cl  Cl2       1.0  0.8365910675594594  0.9019703477436108  0.3185655312794719  1.0000
