data_image0
_chemical_formula_structural       H76C79N8O10
_chemical_formula_sum              "H76 C79 N8 O10"
_cell_length_a       10.641897760592869
_cell_length_b       10.825846770132257
_cell_length_c       15.156448321903598
_cell_angle_alpha    80.79438179728558
_cell_angle_beta     74.00650372067808
_cell_angle_gamma    85.20192140908289

_space_group_name_H-M_alt    "P 1"
_space_group_IT_number       1

loop_
  _space_group_symop_operation_xyz
  'x, y, z'

loop_
  _atom_site_type_symbol
  _atom_site_label
  _atom_site_symmetry_multiplicity
  _atom_site_fract_x
  _atom_site_fract_y
  _atom_site_fract_z
  _atom_site_occupancy
  H   H1        1.0  0.9113458461044962  0.996152746558579  0.04848807416147274  1.0000
  H   H2        1.0  0.8113776406661509  0.8654309955981804  0.22048686426902606  1.0000
  H   H3        1.0  0.413830407990414  0.010010740323822369  0.9600878851085082  1.0000
  H   H4        1.0  0.95385744310318  0.5173672452106055  0.23425120424460427  1.0000
  H   H5        1.0  0.5000527292354267  0.7037711468619032  0.19595294638981425  1.0000
  H   H6        1.0  0.5608862236266117  0.885867659867335  0.016719861112872117  1.0000
  H   H7        1.0  0.6645679176627425  0.9075816066164888  0.13913779327139084  1.0000
  H   H8        1.0  0.272764397555915  0.261001855594687  0.9955966970987373  1.0000
  H   H9        1.0  0.31988544411995007  0.3384355739327416  0.44173874131810514  1.0000
  H   H10       1.0  0.40550885973101336  0.442776334927095  0.9881923476335306  1.0000
  H   H11       1.0  0.28583766811603467  0.5900622362040544  0.3702835799617939  1.0000
  H   H12       1.0  0.23785895252424155  0.5777774675117042  0.4929991576768166  1.0000
  H   H13       1.0  0.270135104205285  0.727339000978935  0.42465967392021  1.0000
  H   H14       1.0  0.2807564413453876  0.787601296442075  0.22903867821467247  1.0000
  H   H15       1.0  0.04258234131825125  0.740356898927498  0.9071839185543615  1.0000
  H   H16       1.0  0.2281720755953657  0.6542461108690726  0.9759850815408806  1.0000
  H   H17       1.0  0.18657920305613895  0.057427338565198105  0.9514921638295105  1.0000
  H   H18       1.0  0.18143549368928613  0.15588452610227552  0.46049568312790756  1.0000
  H   H19       1.0  0.17133899185093848  0.13452483245209162  0.14634824721932652  1.0000
  H   H20       1.0  0.182749174382035  0.5465891931003908  0.1359596000696076  1.0000
  H   H21       1.0  0.14045333365410737  0.09109429954186599  0.32074583604875506  1.0000
  H   H22       1.0  0.9258318628801572  0.5370250351713342  0.4317174885423555  1.0000
  H   H23       1.0  0.04485804265934522  0.46114416748814674  0.4883664287633376  1.0000
  H   H24       1.0  0.08356641086242181  0.48690498886485556  0.3659272213430603  1.0000
  H   H25       1.0  0.5424759584560167  0.9891181576911763  0.2827318428385236  1.0000
  H   H26       1.0  0.4895787545413013  0.8382462645522467  0.2842213370396282  1.0000
  H   H27       1.0  0.3911111680035306  0.973083374315045  0.25913354277076933  1.0000
  H   H28       1.0  0.4761703547590838  0.1239835013018265  0.0969157699721209  1.0000
  H   H29       1.0  0.6357804637659012  0.0886376625072995  0.027834741948898803  1.0000
  H   H30       1.0  0.6153629154956173  0.1367946315985807  0.13752097613167386  1.0000
  H   H31       1.0  0.040811645480391526  0.8161943577566902  0.4987115487909498  1.0000
  H   H32       1.0  0.02079792153239915  0.6708204146852966  0.5739459014666614  1.0000
  H   H33       1.0  0.9018843289012602  0.7267235568633658  0.5125371339822082  1.0000
  H   H34       1.0  0.45989343148086737  0.5202650045816302  0.20524307851436016  1.0000
  H   H35       1.0  0.5356421176605276  0.841262348185815  0.8734640333911389  1.0000
  H   H36       1.0  0.18661332324523178  0.0653891630345886  0.8187495036456021  1.0000
  H   H37       1.0  0.3293906554175972  0.9239955752733087  0.8388832273485101  1.0000
  H   H38       1.0  0.13775287941000997  0.01702419073084674  0.6262141460340358  1.0000
  H   H39       1.0  0.5371946112805203  0.09330176250427048  0.5654738380155063  1.0000
  H   H40       1.0  0.9698159362431528  0.9339768808006516  0.6224192923576533  1.0000
  H   H41       1.0  0.32274054988170253  0.13515065435124463  0.6127943238630374  1.0000
  H   H42       1.0  0.8249032840427922  0.8335183857928106  0.7935174628491161  1.0000
  H   H43       1.0  0.3160392054619242  0.4445087965234493  0.8530947501287419  1.0000
  H   H44       1.0  0.6210859902281078  0.34974173749234777  0.6326321247615194  1.0000
  H   H45       1.0  0.6499658064300644  0.6516172046542836  0.38010940988351694  1.0000
  H   H46       1.0  0.2468792514848763  0.8030136891805055  0.7471444394809411  1.0000
  H   H47       1.0  0.11074287915753131  0.7973964157135993  0.7024002970772214  1.0000
  H   H48       1.0  0.10199438186434344  0.8962865402023616  0.7864549510652356  1.0000
  H   H49       1.0  0.5085109608915586  0.4736432262027423  0.39708184095911647  1.0000
  H   H50       1.0  0.3450715642138259  0.987120989646609  0.504287431159484  1.0000
  H   H51       1.0  0.25161742243412016  0.850879627846377  0.5370683631670736  1.0000
  H   H52       1.0  0.39186169964181955  0.8568877246593368  0.5776479614584616  1.0000
  H   H53       1.0  0.43962478374625497  0.632309565560098  0.8453514434962893  1.0000
  H   H54       1.0  0.651478327683362  0.7440771126312562  0.5211627907205002  1.0000
  H   H55       1.0  0.5744698356030297  0.13203081130257208  0.3724121924466393  1.0000
  H   H56       1.0  0.6272800660054989  0.27773093471030447  0.3043717690123369  1.0000
  H   H57       1.0  0.56746985621152  0.26733768766838384  0.42684722321322105  1.0000
  H   H58       1.0  0.6783736668291865  0.14044266998430496  0.886864138284034  1.0000
  H   H59       1.0  0.5719537108172117  0.7358266629306663  0.693847272976803  1.0000
  H   H60       1.0  0.5297450958498342  0.24430057327086546  0.7925447903728813  1.0000
  H   H61       1.0  0.8624985057736447  0.3620339193558547  0.5644198914880709  1.0000
  H   H62       1.0  0.7771958011287995  0.3603745182850469  0.4283257821124084  1.0000
  H   H63       1.0  0.8411914024341146  0.36140853276006835  0.3074861818765196  1.0000
  H   H64       1.0  0.9322245317377241  0.28244606006106615  0.3843747945150889  1.0000
  H   H65       1.0  0.9369927366608526  0.07930997617441776  0.3135474431626333  1.0000
  H   H66       1.0  0.8401919532533835  0.1492583662717956  0.23864259659090775  1.0000
  H   H67       1.0  0.7854776914376793  0.015010362052690612  0.3202350399938848  1.0000
  H   H68       1.0  0.2941194834962675  0.3278270362670413  0.6417706103985507  1.0000
  H   H69       1.0  0.8519158885436418  0.5984697411274315  0.7349385234553082  1.0000
  H   H70       1.0  0.08683109604229759  0.3778068769806336  0.8986117106593178  1.0000
  H   H71       1.0  0.6690816122441358  0.4095084342513664  0.007143183953008294  1.0000
  H   H72       1.0  0.6522890460256863  0.5461167575699797  0.8628355123093614  1.0000
  H   H73       1.0  0.07053457503865952  0.5138467903194669  0.753676579023214  1.0000
  H   H74       1.0  0.9278976011239959  0.20707033463262353  0.03639794836246213  1.0000
  H   H75       1.0  0.7951932746195329  0.293056719553288  0.1024606248762581  1.0000
  H   H76       1.0  0.9593414253420445  0.33851431258681147  0.08146904592896022  1.0000
  C   C1        1.0  0.25205060493551734  0.24040875754511487  0.22607584038065306  1.0000
  C   C2        1.0  0.9637828670128242  0.9511649522096534  0.09780924342574493  1.0000
  C   C3        1.0  0.1325367461575483  0.8735134441773489  0.16316020378791624  1.0000
  C   C4        1.0  0.3828545417453604  0.418109508028391  0.13478846978573605  1.0000
  C   C5        1.0  0.8725001186270894  0.6115548169661281  0.124087862141669  1.0000
  C   C6        1.0  0.9113350637874701  0.8855506709737268  0.18272512040798203  1.0000
  C   C7        1.0  0.10361001085381637  0.9459692292450776  0.08365570102771519  1.0000
  C   C8        1.0  0.8978085375222513  0.6750439410036437  0.03342557752971314  1.0000
  C   C9        1.0  0.33392027234338045  0.9704237067757034  0.016764052395139582  1.0000
  C   C10       1.0  0.9812353619320159  0.7693528859248726  0.31328375093990035  1.0000
  C   C11       1.0  0.47290840265732964  0.6311192378135375  0.07939149150160124  1.0000
  C   C12       1.0  0.7720312633492182  0.7269073174618784  0.016097636441998835  1.0000
  C   C13       1.0  0.9733059835187504  0.5633977432307442  0.16279126852729708  1.0000
  C   C14       1.0  0.5350061403943259  0.7246893201969618  0.11992647742729613  1.0000
  C   C15       1.0  0.7294718990059065  0.6171600089618633  0.16581340819489568  1.0000
  C   C16       1.0  0.5063177332670705  0.8643116487954797  0.08978543196620194  1.0000
  C   C17       1.0  0.5634772008834449  0.9448188175292881  0.144919400672714  1.0000
  C   C18       1.0  0.28636659495499367  0.28430341009667437  0.05952714208309764  1.0000
  C   C19       1.0  0.30152256271758426  0.30922310737669423  0.3808263013785056  1.0000
  C   C20       1.0  0.3636167250608081  0.3865214099593223  0.0544503178463612  1.0000
  C   C21       1.0  0.22869742667506432  0.6364340682713635  0.42885823181732824  1.0000
  C   C22       1.0  0.2612744453811265  0.8457737329484901  0.16844934435516246  1.0000
  C   C23       1.0  0.3633571879037846  0.8936130798613457  0.09331503976259692  1.0000
  C   C24       1.0  0.02425719890965473  0.6903169555727847  0.9774842891661049  1.0000
  C   C25       1.0  0.3294552957850034  0.34355194748953827  0.22257584500855784  1.0000
  C   C26       1.0  0.12674248637005697  0.6419280296501433  0.015973700850995438  1.0000
  C   C27       1.0  0.2063500769090738  0.9963223550386294  0.010816341565439801  1.0000
  C   C28       1.0  0.22400462056617207  0.20534158661433383  0.3916512842717683  1.0000
  C   C29       1.0  0.2302732635002875  0.21345283704232731  0.14321241621636796  1.0000
  C   C30       1.0  0.10123573768989952  0.5806411234763742  0.1073137845201379  1.0000
  C   C31       1.0  0.2002116192317774  0.17068722372964304  0.3143791981685984  1.0000
  C   C32       1.0  0.08523264466768908  0.6521546735616126  0.42903600568679284  1.0000
  C   C33       1.0  0.030215740850040657  0.5269441350325088  0.4285846814465717  1.0000
  C   C34       1.0  0.4922485459365212  0.9349615085310351  0.24821943808351332  1.0000
  C   C35       1.0  0.5726931974162524  0.08135598797255494  0.09914360106397745  1.0000
  C   C36       1.0  0.006529963657825971  0.7208847708433851  0.5082024836205731  1.0000
  C   C37       1.0  0.903177682480409  0.25814085273298054  0.6883538462527725  1.0000
  C   C38       1.0  0.3713217376325355  0.44373002696420144  0.7062015392598932  1.0000
  C   C39       1.0  0.44299935181022326  0.504530792677631  0.6176042255241114  1.0000
  C   C40       1.0  0.6538836307764145  0.9904708641368596  0.6518185057117514  1.0000
  C   C41       1.0  0.5370155431797254  0.8969225454232366  0.8065671372716194  1.0000
  C   C42       1.0  0.9619135041816915  0.13963850400300892  0.8145353044248361  1.0000
  C   C43       1.0  0.8515507470491559  0.19552431722583855  0.77793768550947  1.0000
  C   C44       1.0  0.6557659586860811  0.9199019602139434  0.739099075881232  1.0000
  C   C45       1.0  0.20662100583726795  0.13145536901561727  0.7542103930027191  1.0000
  C   C46       1.0  0.4207972553393616  0.9433281267153185  0.7859292053512951  1.0000
  C   C47       1.0  0.22115450586173596  0.9651802789255307  0.6469369250609055  1.0000
  C   C48       1.0  0.5375740504446128  0.03805839504566509  0.631789021487605  1.0000
  C   C49       1.0  0.04779299615224315  0.24692335330397042  0.6667220244078006  1.0000
  C   C50       1.0  0.2744847936798529  0.2392654578849859  0.7751822041124053  1.0000
  C   C51       1.0  0.8652147196701178  0.9360208125356018  0.6524459031151644  1.0000
  C   C52       1.0  0.2943017964037102  0.0646608823044643  0.6749040664036323  1.0000
  C   C53       1.0  0.7904860159746567  0.8863435284450132  0.737075338412789  1.0000
  C   C54       1.0  0.4196211205585471  0.013992456650715706  0.699470022078647  1.0000
  C   C55       1.0  0.3705138067493563  0.49102954600137444  0.7863166103515171  1.0000
  C   C56       1.0  0.6871905884480511  0.30819976186472114  0.6736141244528477  1.0000
  C   C57       1.0  0.5909906679370938  0.6145004533215708  0.4485553672792783  1.0000
  C   C58       1.0  0.16733205903026455  0.8601330858958675  0.7255144179556922  1.0000
  C   C59       1.0  0.5124631473343496  0.511451864832624  0.4588685179987354  1.0000
  C   C60       1.0  0.3076370622308356  0.9122876451548841  0.5616624341144878  1.0000
  C   C61       1.0  0.7632118168872877  0.186152749888598  0.3793737802357633  1.0000
  C   C62       1.0  0.4419150596919537  0.5971329506789051  0.7814000967774481  1.0000
  C   C63       1.0  0.5923894870127924  0.664182113473075  0.526349367250776  1.0000
  C   C64       1.0  0.5171171304875849  0.6103448173250489  0.6144444908655136  1.0000
  C   C65       1.0  0.6245909711246311  0.21746628485114408  0.37031176959463874  1.0000
  C   C66       1.0  0.7177913876822485  0.18981931433188817  0.817378231836146  1.0000
  C   C67       1.0  0.51519547486374  0.6551390441092471  0.6974864036893935  1.0000
  C   C68       1.0  0.8365882174721021  0.0618478547183619  0.5094301778000834  1.0000
  C   C69       1.0  0.6354118301033682  0.2478158149997824  0.7637978244234985  1.0000
  C   C70       1.0  0.8223229685991241  0.31506427605843773  0.6345382916515062  1.0000
  C   C71       1.0  0.8337917069386712  0.3043699306348758  0.3752619073135944  1.0000
  C   C72       1.0  0.8367437908251218  0.10230252997866818  0.3089355504624209  1.0000
  C   C73       1.0  0.8599405924772684  0.5383966382901496  0.7983145688848283  1.0000
  C   C74       1.0  0.9913212545492254  0.41436908275200507  0.8904803317926658  1.0000
  C   C75       1.0  0.7575978974383186  0.43238113564391667  0.9515115389000648  1.0000
  C   C76       1.0  0.8792028922341837  0.3840008387789502  0.9632042407529176  1.0000
  C   C77       1.0  0.7477971112665006  0.5088223567093522  0.8699484442668901  1.0000
  C   C78       1.0  0.9819565198183626  0.490917939119397  0.8090125483755183  1.0000
  C   C79       1.0  0.8905717305175738  0.30159985718478927  0.05071148213670882  1.0000
  N   N1        1.0  0.44740976053929554  0.5224949360165617  0.14021612233322822  1.0000
  N   N2        1.0  0.011072710857555835  0.8385802423458566  0.22465696882663833  1.0000
  N   N3        1.0  0.3530964090831777  0.3765786517289598  0.2994592942998393  1.0000
  N   N4        1.0  0.6752522286775875  0.6929358370663335  0.10012561238747056  1.0000
  N   N5        1.0  0.4412567185215931  0.4566888492738998  0.539944166658932  1.0000
  N   N6        1.0  0.7849067797623979  0.9997774489498248  0.5989910938906747  1.0000
  N   N7        1.0  0.07721741796320948  0.17186139727898614  0.7431630965311213  1.0000
  N   N8        1.0  0.306832586468521  0.33647062084952395  0.7051548243657048  1.0000
  O   O1        1.0  0.09096555446319726  0.7325603978302154  0.3385383509251666  1.0000
  O   O2        1.0  0.45448039435794135  0.6502628409426182  0.0013830609873872737  1.0000
  O   O3        1.0  0.8682712649632247  0.748486761239844  0.35800458373661187  1.0000
  O   O4        1.0  0.7522359720094606  0.7895332129426144  0.9463044808409004  1.0000
  O   O5        1.0  0.6648722501084461  0.5680429122925083  0.24186586641667024  1.0000
  O   O6        1.0  0.12957440654324556  0.2931032073137381  0.597035414868904  1.0000
  O   O7        1.0  0.7391493885960867  0.11444179014912376  0.4743732880560278  1.0000
  O   O8        1.0  0.2963655722518273  0.2344350059300332  0.8518209112028735  1.0000
  O   O9        1.0  0.9615257522058901  0.07607123658826567  0.8890142534654616  1.0000
  O   O10       1.0  0.9545317292317779  0.06412039851439937  0.4726555193238429  1.0000
