data_image0
_chemical_formula_structural       H68C92N20O24
_chemical_formula_sum              "H68 C92 N20 O24"
_cell_length_a       8.470117542837414
_cell_length_b       12.946788377182328
_cell_length_c       18.208804820393954
_cell_angle_alpha    90.0
_cell_angle_beta     97.78612947839375
_cell_angle_gamma    90.0

_space_group_name_H-M_alt    "P 1"
_space_group_IT_number       1

loop_
  _space_group_symop_operation_xyz
  'x, y, z'

loop_
  _atom_site_type_symbol
  _atom_site_label
  _atom_site_symmetry_multiplicity
  _atom_site_fract_x
  _atom_site_fract_y
  _atom_site_fract_z
  _atom_site_occupancy
  H   H1        1.0  0.07583364746585623  0.8699709805908864  0.6500316561329117  1.0000
  H   H2        1.0  0.9241663526109982  0.36997098048206895  0.8499683436758754  1.0000
  H   H3        1.0  0.9241663527051782  0.13002901962674848  0.3499683436444819  1.0000
  H   H4        1.0  0.07583364756003627  0.6300290197355658  0.15003165610151833  1.0000
  H   H5        1.0  0.8799594449058913  0.7316699774513195  0.6017906637194826  1.0000
  H   H6        1.0  0.12004055517096314  0.23166997734250214  0.8982093360893042  1.0000
  H   H7        1.0  0.12004055526514319  0.2683300227663153  0.3982093360579109  1.0000
  H   H8        1.0  0.8799594450000713  0.7683300228751327  0.10179066368808935  1.0000
  H   H9        1.0  0.6374287019396289  0.7758212590932927  0.5168149786576868  1.0000
  H   H10       1.0  0.3625712981372255  0.2758212589844752  0.9831850211511002  1.0000
  H   H11       1.0  0.36257129823140555  0.22417874112434225  0.4831850211197069  1.0000
  H   H12       1.0  0.6374287020338089  0.7241787412331597  0.01681497862629341  1.0000
  H   H13       1.0  0.586353695949587  0.95506715022796  0.47209693855599  1.0000
  H   H14       1.0  0.41364630312404577  0.4550671501191425  0.027903061111344718  1.0000
  H   H15       1.0  0.4136463030298657  0.044932849989674895  0.5279030611427381  1.0000
  H   H16       1.0  0.5863536958554069  0.5449328500984923  0.9720969385873833  1.0000
  H   H17       1.0  0.9406872348395631  0.2988157809714632  0.6108980538873784  1.0000
  H   H18       1.0  0.059312765229537365  0.7988157810802805  0.889101946470093  1.0000
  H   H19       1.0  0.059312765323717404  0.7011842192461717  0.3891019464386997  1.0000
  H   H20       1.0  0.9406872349337432  0.2011842191373542  0.11089805385598508  1.0000
  H   H21       1.0  0.7437629670092676  0.6853271569370494  0.42687149700708543  1.0000
  H   H22       1.0  0.2562370320566112  0.18532715682823195  0.07312850320893391  1.0000
  H   H23       1.0  0.25623703316176677  0.31467284250819316  0.5731285027703082  1.0000
  H   H24       1.0  0.7437629669150877  0.8146728426170106  0.9268714970384788  1.0000
  H   H25       1.0  0.9075507809138624  0.5305645585515438  0.46560362048896686  1.0000
  H   H26       1.0  0.09244921934359814  0.03056455844272639  0.03439637980571798  1.0000
  H   H27       1.0  0.09244921924941807  0.469435441666091  0.5343963798371113  1.0000
  H   H28       1.0  0.9075507808196823  0.9694354410025161  0.9656036205203603  1.0000
  H   H29       1.0  0.7859535223758617  0.35494865182929086  0.4608700109689511  1.0000
  H   H30       1.0  0.21404647669001714  0.8549486519381082  0.039129989247068224  1.0000
  H   H31       1.0  0.21404647778741884  0.6450513476159517  0.5391299893571271  1.0000
  H   H32       1.0  0.7859535222816816  0.14505134827952654  0.9608700110003445  1.0000
  H   H33       1.0  0.498387649376573  0.33085416670201556  0.4141184835024634  1.0000
  H   H34       1.0  0.5016123508808877  0.8308541660384406  0.08588151679222145  1.0000
  H   H35       1.0  0.5016123507867076  0.6691458335156192  0.5858815168236149  1.0000
  H   H36       1.0  0.4983876492823929  0.16914583340680178  0.9141184835338566  1.0000
  H   H37       1.0  0.8200682516434594  0.7602070770961358  0.7914295019596466  1.0000
  H   H38       1.0  0.1799317484333949  0.2602070769873183  0.7085704978491403  1.0000
  H   H39       1.0  0.17993174852757496  0.23979292312149908  0.208570497817747  1.0000
  H   H40       1.0  0.8200682517376395  0.7397929232303164  0.29142950192825323  1.0000
  H   H41       1.0  0.5683880970825259  0.6819089439632438  0.7330996251241837  1.0000
  H   H42       1.0  0.4316119029943284  0.18190894385442635  0.7669003746846033  1.0000
  H   H43       1.0  0.4316119030885085  0.31809105625439105  0.2669003746532099  1.0000
  H   H44       1.0  0.5683880971767059  0.8180910563632084  0.23309962509279034  1.0000
  H   H45       1.0  0.3525398880128269  0.7886116751544563  0.6658568055016395  1.0000
  H   H46       1.0  0.6474601120640274  0.2886116758180312  0.8341431943071473  1.0000
  H   H47       1.0  0.6474601121582075  0.21138832429078622  0.33414319427575406  1.0000
  H   H48       1.0  0.35253988809925313  0.7113883243996036  0.16585680601893074  1.0000
  H   H49       1.0  0.3829741528619341  0.9792907731731474  0.6545353760170578  1.0000
  H   H50       1.0  0.6170258460233384  0.47929077306433  0.8454646237130636  1.0000
  H   H51       1.0  0.6170258461175185  0.020709226272095118  0.3454646236816703  1.0000
  H   H52       1.0  0.3829741529483603  0.5207092263809125  0.15453537653434904  1.0000
  H   H53       1.0  0.9830968492261442  0.9565363408446479  0.8011585187820927  1.0000
  H   H54       1.0  0.016903149651374464  0.45653634073583044  0.6988414814967133  1.0000
  H   H55       1.0  0.016903149745554513  0.04346365937298701  0.19884148146532002  1.0000
  H   H56       1.0  0.9830968493203245  0.5434636594818044  0.3011585187506993  1.0000
  H   H57       1.0  0.6341781770523182  0.1386422429800037  0.6845970744311909  1.0000
  H   H58       1.0  0.36582182302453625  0.6386422430888211  0.8154029253775962  1.0000
  H   H59       1.0  0.3658218231187163  0.8613577572376311  0.3154029253462028  1.0000
  H   H60       1.0  0.6341781771464983  0.3613577571288137  0.18459707439979742  1.0000
  H   H61       1.0  0.891223440939659  0.22820843470394445  0.735099622871363  1.0000
  H   H62       1.0  0.10877655913719533  0.7282084348127618  0.7649003769374241  1.0000
  H   H63       1.0  0.10877655923137539  0.7717915655136904  0.26490037690603063  1.0000
  H   H64       1.0  0.8912234410260852  0.271791565404873  0.23509962338865417  1.0000
  H   H65       1.0  0.0362733278985357  0.15089814578595756  0.7882775668492419  1.0000
  H   H66       1.0  0.9637266721783186  0.6508981458947749  0.7117224329595451  1.0000
  H   H67       1.0  0.9637266722724988  0.8491018544316773  0.21172243292815177  1.0000
  H   H68       1.0  0.03627332799271575  0.34910185432285984  0.2882775668178485  1.0000
  C   C1        1.0  0.028572282258923436  0.08571597817693839  0.606238286932062  1.0000
  C   C2        1.0  0.9714277178179309  0.5857159782857557  0.8937617128767248  1.0000
  C   C3        1.0  0.9714277179121108  0.9142840220406964  0.3937617128453315  1.0000
  C   C4        1.0  0.02857228235310348  0.4142840219318791  0.10623828690066874  1.0000
  C   C5        1.0  0.9369704320526397  0.9889620751479813  0.5877333748868196  1.0000
  C   C6        1.0  0.06302956801646072  0.4889620758115562  0.9122666254706517  1.0000
  C   C7        1.0  0.06302956811064078  0.011037924297261222  0.4122666254392585  1.0000
  C   C8        1.0  0.9369704321468199  0.5110379244060786  0.08773337485542634  1.0000
  C   C9        1.0  0.969246387543448  0.8885121780683293  0.6117121686357387  1.0000
  C   C10       1.0  0.030753612533406305  0.3885121779595118  0.8882878311730482  1.0000
  C   C11       1.0  0.030753612619832497  0.11148782214930558  0.3882878316903394  1.0000
  C   C12       1.0  0.9692463876376282  0.6114878222581229  0.11171216860434544  1.0000
  C   C13       1.0  0.8590976008970125  0.8117278821457946  0.5849877793908181  1.0000
  C   C14       1.0  0.14090239917984188  0.3117278820369772  0.9150122204179687  1.0000
  C   C15       1.0  0.14090239927402193  0.18827211807184024  0.4150122203865755  1.0000
  C   C16       1.0  0.8590976009911926  0.6882721181806576  0.08498777935942475  1.0000
  C   C17       1.0  0.722168834790175  0.8361066254143774  0.5363934161583139  1.0000
  C   C18       1.0  0.2778311652866794  0.33610662530556  0.963606583650473  1.0000
  C   C19       1.0  0.27783116538085945  0.1638933748032574  0.4636065836190797  1.0000
  C   C20       1.0  0.722168834884355  0.6638933749120748  0.03639341612692057  1.0000
  C   C21       1.0  0.6913926610767621  0.9374379364530397  0.5114200174251715  1.0000
  C   C22       1.0  0.3086073390000923  0.4374379363442223  0.9885799823836153  1.0000
  C   C23       1.0  0.3086073390942723  0.06256206376459514  0.4885799823522221  1.0000
  C   C24       1.0  0.6913926611709422  0.5625620631010202  0.011420017393778119  1.0000
  C   C25       1.0  0.8001800958553114  0.013051381939462467  0.5380008207974977  1.0000
  C   C26       1.0  0.19981990422154305  0.5130513820482798  0.9619991790112892  1.0000
  C   C27       1.0  0.1998199043157231  0.9869486182781723  0.46199917897989595  1.0000
  C   C28       1.0  0.8001800959494915  0.4869486181693549  0.038000820766104344  1.0000
  C   C29       1.0  0.8003914872047292  0.12577417600104393  0.5222800761243831  1.0000
  C   C30       1.0  0.1996085128721252  0.6257741761098613  0.9777199236844041  1.0000
  C   C31       1.0  0.19960851296630525  0.8742258242165909  0.47771992365301064  1.0000
  C   C32       1.0  0.8003914872989093  0.3742258241077735  0.02228007609298965  1.0000
  C   C33       1.0  0.4046795475673472  0.6701936153750885  0.3749060384480739  1.0000
  C   C34       1.0  0.5953204515062855  0.1701936152662711  0.1250939612192608  1.0000
  C   C35       1.0  0.5953204514121055  0.32980638484254626  0.6250939612506542  1.0000
  C   C36       1.0  0.40467954866474887  0.8298063849513637  0.8749060385581328  1.0000
  C   C37       1.0  0.5292908319083008  0.593853835871015  0.4011988381794704  1.0000
  C   C38       1.0  0.470709167165332  0.09385383576219768  0.09880116148786439  1.0000
  C   C39       1.0  0.4707091670711519  0.40614616434661976  0.5988011615192578  1.0000
  C   C40       1.0  0.5292908318141207  0.9061461644554372  0.9011988382108638  1.0000
  C   C41       1.0  0.6892553256847244  0.6090640898940949  0.4256186649009151  1.0000
  C   C42       1.0  0.31074467457273625  0.10906408978527746  0.07438133539376975  1.0000
  C   C43       1.0  0.31074467447855614  0.3909359103235399  0.574381335425163  1.0000
  C   C44       1.0  0.6892553255905444  0.8909359104323574  0.9256186649323086  1.0000
  C   C45       1.0  0.7808911008847829  0.5208885442111237  0.44676703786574057  1.0000
  C   C46       1.0  0.2191088993726777  0.02088854410230633  0.05323296242894419  1.0000
  C   C47       1.0  0.21910889927849764  0.47911145600651106  0.5532329624603376  1.0000
  C   C48       1.0  0.7808911007906029  0.9791114561153285  0.9467670378971341  1.0000
  C   C49       1.0  0.7133275924246663  0.4223157195985579  0.44330142077571943  1.0000
  C   C50       1.0  0.28667240783279424  0.9223157197073752  0.0566985795189654  1.0000
  C   C51       1.0  0.2866724077463681  0.577684280619077  0.5566985790016742  1.0000
  C   C52       1.0  0.7133275923304863  0.07768428051025955  0.9433014208071128  1.0000
  C   C53       1.0  0.5503473307641179  0.4079337134534537  0.4175221630556772  1.0000
  C   C54       1.0  0.4496526695010966  0.9079337127898787  0.08247783669032306  1.0000
  C   C55       1.0  0.4496526694069165  0.5920662867641812  0.5824778367217164  1.0000
  C   C56       1.0  0.5503473306699379  0.09206628665536376  0.9175221630870705  1.0000
  C   C57       1.0  0.46051926627393297  0.4950099046412911  0.39631250745844715  1.0000
  C   C58       1.0  0.5394807339912815  0.9950099047501085  0.10368749228755307  1.0000
  C   C59       1.0  0.5394807338971015  0.5049900955763438  0.6036874923189464  1.0000
  C   C60       1.0  0.46051926617975286  0.004990095467526321  0.8963125074898405  1.0000
  C   C61       1.0  0.28997076738368177  0.5072168771657308  0.3655134002136721  1.0000
  C   C62       1.0  0.7100292316821971  0.007216877056913383  0.1344866000023472  1.0000
  C   C63       1.0  0.7100292327795987  0.492783123051904  0.6344866001124061  1.0000
  C   C64       1.0  0.28997076728950183  0.9927831231607215  0.8655134002450655  1.0000
  C   C65       1.0  0.8319479175895186  0.07735134620451337  0.7524114056136009  1.0000
  C   C66       1.0  0.1680520824873359  0.5773513463133308  0.7475885941951862  1.0000
  C   C67       1.0  0.16805208258151597  0.9226486540131215  0.2475885941637928  1.0000
  C   C68       1.0  0.8319479176759447  0.422648653904304  0.2524114061308921  1.0000
  C   C69       1.0  0.7474716471398085  0.9135524174354421  0.7506000322194794  1.0000
  C   C70       1.0  0.252528352929292  0.4135524173266247  0.7493999681379923  1.0000
  C   C71       1.0  0.25252835302347204  0.08644758278219272  0.24939996810659887  1.0000
  C   C72       1.0  0.7474716472339885  0.5864475828910101  0.25060003218808596  1.0000
  C   C73       1.0  0.7299410659637683  0.8078182948006266  0.7592915146021997  1.0000
  C   C74       1.0  0.27005893411308607  0.30781829469180916  0.7407084852065873  1.0000
  C   C75       1.0  0.27005893419951227  0.1921817054170082  0.24070848572387848  1.0000
  C   C76       1.0  0.7299410660579483  0.6921817055258256  0.25929151457080635  1.0000
  C   C77       1.0  0.585608486017751  0.7646704141274139  0.727450285149054  1.0000
  C   C78       1.0  0.4143915140591033  0.26467041401859653  0.772549714659733  1.0000
  C   C79       1.0  0.41439151415328335  0.2353295860902209  0.2725497146283396  1.0000
  C   C80       1.0  0.5856084861119311  0.7353295861990383  0.22745028511766063  1.0000
  C   C81       1.0  0.46316578584030704  0.8253059375583492  0.6899963006876219  1.0000
  C   C82       1.0  0.5368342142365473  0.32530593744953185  0.810003699121165  1.0000
  C   C83       1.0  0.5368342143307274  0.1746940626592856  0.31000369908977166  1.0000
  C   C84       1.0  0.4631657859344871  0.6746940619957107  0.1899963006562286  1.0000
  C   C85       1.0  0.47990184186666807  0.9321379409637387  0.6821152449631412  1.0000
  C   C86       1.0  0.5200981582024324  0.4321379408549213  0.8178847553943304  1.0000
  C   C87       1.0  0.5200981582966124  0.06786205848150374  0.31788475536293703  1.0000
  C   C88       1.0  0.4799018419608482  0.5678620585903211  0.18211524493174785  1.0000
  C   C89       1.0  0.625050616106026  0.9745571459434006  0.7123508270562684  1.0000
  C   C90       1.0  0.3749493839630746  0.47455714583458314  0.7876491733012032  1.0000
  C   C91       1.0  0.3749493840572546  0.02544285427423427  0.2876491732698098  1.0000
  C   C92       1.0  0.625050616200206  0.5254428543830517  0.21235082702487498  1.0000
  N   N1        1.0  0.9379311227439251  0.16327188785486635  0.5663873729303625  1.0000
  N   N2        1.0  0.06206887732517529  0.6632718879636836  0.933612627427109  1.0000
  N   N3        1.0  0.06206887741935534  0.8367281123627685  0.4336126273957157  1.0000
  N   N4        1.0  0.9379311228381052  0.33672811225395105  0.06638737289896911  1.0000
  N   N5        1.0  0.2666148639313796  0.6133564941862623  0.3530214312618818  1.0000
  N   N6        1.0  0.733385136326081  0.11335649407744482  0.14697856903280307  1.0000
  N   N7        1.0  0.733385136231901  0.3866435060313726  0.6469785690641964  1.0000
  N   N8        1.0  0.2666148638371995  0.8866435061401899  0.8530214312932751  1.0000
  N   N9        1.0  0.8727447477184568  0.9802292059061187  0.7750860208064829  1.0000
  N   N10       1.0  0.12725525235839757  0.4802292057973013  0.724913979002304  1.0000
  N   N11       1.0  0.12725525245257763  0.019770794311516165  0.22491397897091062  1.0000
  N   N12       1.0  0.872744747804883  0.5197707936479412  0.27508602132377424  1.0000
  N   N13       1.0  0.6823435189161039  0.07574107967410938  0.7150548665635238  1.0000
  N   N14       1.0  0.31765648116075057  0.5757410797829268  0.7849451332452633  1.0000
  N   N15       1.0  0.3176564812549306  0.9242589205435254  0.2849451332138699  1.0000
  N   N16       1.0  0.6823435190102838  0.42425892043470803  0.21505486653213038  1.0000
  N   N17       1.0  0.9209497385487279  0.16217602534544237  0.7657076560414022  1.0000
  N   N18       1.0  0.07905026152037271  0.6621760254542598  0.7342923443160694  1.0000
  N   N19       1.0  0.07905026161455277  0.8378239740998  0.23429234428467605  1.0000
  N   N20       1.0  0.9209497386429079  0.33782397399098274  0.2657076560100088  1.0000
  O   O1        1.0  0.15374512571105625  0.0994807092290099  0.647519223928092  1.0000
  O   O2        1.0  0.846254874365798  0.5994807093378273  0.8524807758806949  1.0000
  O   O3        1.0  0.8462548744599782  0.9005192909886249  0.35248077584930154  1.0000
  O   O4        1.0  0.15374512579748245  0.40051929087980753  0.14751922444538323  1.0000
  O   O5        1.0  0.9846798541080741  0.2640855029364515  0.5655154973410992  1.0000
  O   O6        1.0  0.015320145961026356  0.7640855030452689  0.9344845030163725  1.0000
  O   O7        1.0  0.015320146055206409  0.7359144972811832  0.43448450298497904  1.0000
  O   O8        1.0  0.9846798542022542  0.2359144971723659  0.06551549730970578  1.0000
  O   O9        1.0  0.7066635613333341  0.1781309690721858  0.4808917815695445  1.0000
  O   O10       1.0  0.2933364389318804  0.6781309691810031  0.01910821817645578  1.0000
  O   O11       1.0  0.2933364388377004  0.8218690303730567  0.5191082182078491  1.0000
  O   O12       1.0  0.706663561239154  0.3218690302642393  0.9808917816009378  1.0000
  O   O13       1.0  0.4157574112717221  0.7650919626876437  0.3729423826318677  1.0000
  O   O14       1.0  0.5842425889934924  0.2650919625788262  0.12705761711413258  1.0000
  O   O15       1.0  0.5842425888993122  0.23490803752999118  0.6270576171455259  1.0000
  O   O16       1.0  0.41575741117754206  0.7349080376388085  0.872942382663261  1.0000
  O   O17       1.0  0.12376020331763625  0.6538862568357232  0.3257454418530013  1.0000
  O   O18       1.0  0.8762397957482425  0.1538862567269058  0.174254558363018  1.0000
  O   O19       1.0  0.8762397956540624  0.34611374260951927  0.6742545583944115  1.0000
  O   O20       1.0  0.12376020441503799  0.8461137427183367  0.8257454419630602  1.0000
  O   O21       1.0  0.18326398319776832  0.44259052461990384  0.35197867465475846  1.0000
  O   O22       1.0  0.8167360170596922  0.9425905247287212  0.1480213256399264  1.0000
  O   O23       1.0  0.816736016973266  0.557409475597731  0.6480213251226352  1.0000
  O   O24       1.0  0.18326398310358832  0.05740947548891358  0.8519786746861517  1.0000
