data_image0
_chemical_formula_structural       H104C128N32O8
_chemical_formula_sum              "H104 C128 N32 O8"
_cell_length_a       14.93993440253215
_cell_length_b       12.66372759811805
_cell_length_c       14.195003579413312
_cell_angle_alpha    90.0
_cell_angle_beta     90.0
_cell_angle_gamma    90.0

_space_group_name_H-M_alt    "P 1"
_space_group_IT_number       1

loop_
  _space_group_symop_operation_xyz
  'x, y, z'

loop_
  _atom_site_type_symbol
  _atom_site_label
  _atom_site_symmetry_multiplicity
  _atom_site_fract_x
  _atom_site_fract_y
  _atom_site_fract_z
  _atom_site_occupancy
  H   H1        1.0  0.2800449290654773  0.34483308221577336  0.14723456449359915  1.0000
  H   H2        1.0  0.719955070765034  0.6551669171431791  0.6472345645142645  1.0000
  H   H3        1.0  0.7800449296500799  0.15516691706887442  0.14723456449359915  1.0000
  H   H4        1.0  0.21995507084977836  0.844833082290078  0.6472345645142645  1.0000
  H   H5        1.0  0.4477401285554677  0.34011718245108835  0.14067265772979334  1.0000
  H   H6        1.0  0.5522598712750435  0.659882817697521  0.6406726577504587  1.0000
  H   H7        1.0  0.9477401284707233  0.15988281762321635  0.14067265772979334  1.0000
  H   H8        1.0  0.05225987135978791  0.8401171825253931  0.6406726577504587  1.0000
  H   H9        1.0  0.5267138615191163  0.3379273343368474  0.987651656554175  1.0000
  H   H10       1.0  0.47328613831139504  0.662072665022105  0.4876516565335096  1.0000
  H   H11       1.0  0.02671386160386062  0.1620726649478004  0.987651656554175  1.0000
  H   H12       1.0  0.9732861388959976  0.8379273344111521  0.4876516565335096  1.0000
  H   H13       1.0  0.4403957388785356  0.3439896512498714  0.8363839264696189  1.0000
  H   H14       1.0  0.5596042609519757  0.656010348898738  0.33638392644895354  1.0000
  H   H15       1.0  0.9403957387937912  0.1560103488244333  0.8363839264696189  1.0000
  H   H16       1.0  0.059604261036720015  0.8439896513241761  0.33638392644895354  1.0000
  H   H17       1.0  0.9955443925830847  0.47469273430149805  0.6021649957451637  1.0000
  H   H18       1.0  0.004455607916773566  0.5253072658471114  0.10216499572449836  1.0000
  H   H19       1.0  0.49554439199848205  0.025307265772806654  0.6021649957451637  1.0000
  H   H20       1.0  0.5044556078320291  0.9746927343758027  0.10216499572449836  1.0000
  H   H21       1.0  0.32345602060882944  0.4595331868055041  0.5967094486882886  1.0000
  H   H22       1.0  0.6765439792216817  0.5404668133431053  0.09670944866762327  1.0000
  H   H23       1.0  0.8234560205240851  0.040466813268800604  0.5967094486882886  1.0000
  H   H24       1.0  0.17654397930642615  0.9595331860901519  0.09670944866762327  1.0000
  H   H25       1.0  0.44199411470513583  0.5362459384398941  0.3494373708502447  1.0000
  H   H26       1.0  0.5580058851253754  0.4637540617087153  0.84943737087091  1.0000
  H   H27       1.0  0.9419941146203915  0.96375406178302  0.3494373708502447  1.0000
  H   H28       1.0  0.05800588521011982  0.03624593836558937  0.84943737087091  1.0000
  H   H29       1.0  0.5271133927244868  0.5805492066247986  0.20188491633465608  1.0000
  H   H30       1.0  0.4728866071060245  0.41945079352381087  0.7018849163553214  1.0000
  H   H31       1.0  0.02711339280923113  0.9194507935981155  0.20188491633465608  1.0000
  H   H32       1.0  0.9728866070212802  0.08054920655049383  0.7018849163553214  1.0000
  H   H33       1.0  0.45102965303903375  0.6618350130371993  0.06656198251124719  1.0000
  H   H34       1.0  0.5489703474608244  0.33816498711141013  0.5665619825319125  1.0000
  H   H35       1.0  0.9510296529542893  0.8381649871857149  0.06656198251124719  1.0000
  H   H36       1.0  0.04897034754556885  0.16183501296289454  0.5665619825319125  1.0000
  H   H37       1.0  0.28512382017407145  0.6957084335349482  0.07041839858706915  1.0000
  H   H38       1.0  0.7148761796564398  0.3042915666136613  0.5704183986077345  1.0000
  H   H39       1.0  0.785123820089327  0.804291566687966  0.07041839858706915  1.0000
  H   H40       1.0  0.2148761797411842  0.1957084334606434  0.5704183986077345  1.0000
  H   H41       1.0  0.12382003428920471  0.704860178082677  0.11735892144585518  1.0000
  H   H42       1.0  0.8761799655413065  0.2951398220659325  0.6173589214665205  1.0000
  H   H43       1.0  0.6238200342044603  0.7951398221402372  0.11735892144585518  1.0000
  H   H44       1.0  0.37617996562605094  0.20486017800837222  0.6173589214665205  1.0000
  H   H45       1.0  0.04721262496845036  0.6672534966130934  0.20818209403524068  1.0000
  H   H46       1.0  0.9527873748620609  0.33274650353551605  0.708182094055906  1.0000
  H   H47       1.0  0.547212625553053  0.8327465036098207  0.20818209403524068  1.0000
  H   H48       1.0  0.45278737494680527  0.16725349653878868  0.708182094055906  1.0000
  H   H49       1.0  0.11513952227986017  0.34636832686229346  0.10432302899505187  1.0000
  H   H50       1.0  0.884860477550651  0.6536316732863159  0.6043230290157172  1.0000
  H   H51       1.0  0.6151395221951158  0.1536316732120112  0.10432302899505187  1.0000
  H   H52       1.0  0.38486047763539544  0.8463683269365982  0.6043230290157172  1.0000
  H   H53       1.0  0.04149747403810034  0.3718707397575293  0.006731798936534644  1.0000
  H   H54       1.0  0.9585025257924109  0.6281292603910801  0.5067317989572  1.0000
  H   H55       1.0  0.541497473953356  0.12812926031677535  0.006731798936534644  1.0000
  H   H56       1.0  0.4585025258771553  0.871870739831834  0.5067317989572  1.0000
  H   H57       1.0  0.09821760795357296  0.3665192893670399  0.8102301267947516  1.0000
  H   H58       1.0  0.9017823918769383  0.6334807107815694  0.3102301267740863  1.0000
  H   H59       1.0  0.5982176078688286  0.13348071070726475  0.8102301267947516  1.0000
  H   H60       1.0  0.40178239196168264  0.8665192894413447  0.3102301267740863  1.0000
  H   H61       1.0  0.09929307452304308  0.5889508355429546  0.39724055499203026  1.0000
  H   H62       1.0  0.9007069253074682  0.4110491638159979  0.8972405550126956  1.0000
  H   H63       1.0  0.5992930744382987  0.9110491638903025  0.39724055499203026  1.0000
  H   H64       1.0  0.40070692539221253  0.08895083546864992  0.8972405550126956  1.0000
  H   H65       1.0  0.10369303092371232  0.5643630719806467  0.9970352716589417  1.0000
  H   H66       1.0  0.8963069695761459  0.4356369281679627  0.4970352716382763  1.0000
  H   H67       1.0  0.603693030838968  0.9356369274526104  0.9970352716589417  1.0000
  H   H68       1.0  0.3963069696608903  0.06436307190634201  0.4970352716382763  1.0000
  H   H69       1.0  0.0903488846491336  0.535043855571161  0.8250209930897411  1.0000
  H   H70       1.0  0.9096511151813776  0.46495614457744844  0.32502099306907584  1.0000
  H   H71       1.0  0.5903488845643893  0.9649561446517531  0.8250209930897411  1.0000
  H   H72       1.0  0.409651115266122  0.03504385549685629  0.32502099306907584  1.0000
  H   H73       1.0  0.11479914729139046  0.6870779130856419  0.7148575464057332  1.0000
  H   H74       1.0  0.8852008525391207  0.3129220870629674  0.21485754638506788  1.0000
  H   H75       1.0  0.6147991472066461  0.8129220871372722  0.7148575464057332  1.0000
  H   H76       1.0  0.38520085262386516  0.18707791301133728  0.21485754638506788  1.0000
  H   H77       1.0  0.14312336603282474  0.867676778805075  0.7865676065198619  1.0000
  H   H78       1.0  0.8568766337976865  0.1323232213435344  0.28656760649919655  1.0000
  H   H79       1.0  0.6431233659480803  0.6323232214178391  0.7865676065198619  1.0000
  H   H80       1.0  0.3568766338824309  0.36767677873077026  0.28656760649919655  1.0000
  H   H81       1.0  0.14860042354829356  0.8851264371531303  0.9592768528602793  1.0000
  H   H82       1.0  0.8513995762822177  0.114873562995479  0.4592768528396139  1.0000
  H   H83       1.0  0.6486004234635493  0.6148735630697837  0.9592768528602793  1.0000
  H   H84       1.0  0.35139957636696206  0.3851264370788257  0.4592768528396139  1.0000
  H   H85       1.0  0.11249862045680312  0.4155453297007143  0.3156918746043185  1.0000
  H   H86       1.0  0.8875013793737081  0.5844546696582382  0.8156918746249838  1.0000
  H   H87       1.0  0.6124986203720587  0.08445467037359043  0.3156918746043185  1.0000
  H   H88       1.0  0.38750137945845253  0.915545329775019  0.8156918746249838  1.0000
  H   H89       1.0  0.11339135864698817  0.3007268334298309  0.45832488055412623  1.0000
  H   H90       1.0  0.88660864185287  0.6992731667187785  0.9583248805747915  1.0000
  H   H91       1.0  0.6133913585622438  0.19927316664447378  0.45832488055412623  1.0000
  H   H92       1.0  0.38660864126826744  0.8007268335041356  0.9583248805747915  1.0000
  H   H93       1.0  0.12966165096894114  0.10296993597633798  0.4363724246595797  1.0000
  H   H94       1.0  0.87033834886157  0.8970300633826145  0.9363724246802451  1.0000
  H   H95       1.0  0.6296616508841968  0.3970300633083098  0.4363724246595797  1.0000
  H   H96       1.0  0.3703383489463145  0.6029699360506426  0.9363724246802451  1.0000
  H   H97       1.0  0.14642740731373116  0.03228152428521537  0.2723984822101618  1.0000
  H   H98       1.0  0.8535725925167801  0.967718475863394  0.7723984822308271  1.0000
  H   H99       1.0  0.6464274072289868  0.4677184757890893  0.2723984822101618  1.0000
  H   H100      1.0  0.35357259260152446  0.5322815235698631  0.7723984822308271  1.0000
  H   H101      1.0  0.1444316930624727  0.15903750806352632  0.13763145525608572  1.0000
  H   H102      1.0  0.8555683067680386  0.8409624920850831  0.637631455276751  1.0000
  H   H103      1.0  0.6444316929777284  0.3409624920107784  0.13763145525608572  1.0000
  H   H104      1.0  0.35556830685278296  0.6590375081378309  0.637631455276751  1.0000
  C   C1        1.0  0.17244618353634406  0.35554872490064654  0.9716329342813765  1.0000
  C   C2        1.0  0.8275538169635142  0.6444512752479629  0.47163293426071135  1.0000
  C   C3        1.0  0.6724461834515997  0.14445127517365816  0.9716329342813765  1.0000
  C   C4        1.0  0.32755381704825853  0.8555487249749513  0.47163293426071135  1.0000
  C   C5        1.0  0.26829435605290464  0.3480811361304922  0.9951771861817212  1.0000
  C   C6        1.0  0.7317056444469535  0.6519188640181172  0.4951771861610559  1.0000
  C   C7        1.0  0.7682943559681603  0.15191886394381252  0.9951771861817212  1.0000
  C   C8        1.0  0.23170564453169795  0.8480811362047969  0.4951771861610559  1.0000
  C   C9        1.0  0.3152545388152258  0.34446527424107465  0.07999723379054853  1.0000
  C   C10       1.0  0.6847454616846325  0.6555347259075348  0.5799972338112138  1.0000
  C   C11       1.0  0.8152545387304815  0.15553472583323005  0.07999723379054853  1.0000
  C   C12       1.0  0.1847454611000298  0.8444652743153793  0.5799972338112138  1.0000
  C   C13       1.0  0.40885188685732954  0.34184525104940944  0.07574014433918416  1.0000
  C   C14       1.0  0.5911481129731817  0.6581547490991999  0.5757401443598494  1.0000
  C   C15       1.0  0.9088518867725852  0.15815474902489526  0.07574014433918416  1.0000
  C   C16       1.0  0.0911481130579261  0.8418452511237141  0.5757401443598494  1.0000
  C   C17       1.0  0.4538318648073066  0.34149000493682974  0.9889858344495202  1.0000
  C   C18       1.0  0.5461681350232046  0.6585099952117797  0.48898583442885485  1.0000
  C   C19       1.0  0.9538318647225622  0.15850999513747496  0.9889858344495202  1.0000
  C   C20       1.0  0.046168135107949024  0.8414900050111345  0.48898583442885485  1.0000
  C   C21       1.0  0.40654483589771095  0.34563077546381044  0.9041620812701804  1.0000
  C   C22       1.0  0.5934551639328003  0.654369224684799  0.404162081249515  1.0000
  C   C23       1.0  0.9065448358129666  0.15436922461049424  0.9041620812701804  1.0000
  C   C24       1.0  0.09345516401754464  0.8456307755381152  0.404162081249515  1.0000
  C   C25       1.0  0.31380887918794265  0.35063433144754913  0.9082665071460919  1.0000
  C   C26       1.0  0.6861911206425686  0.6493656687010603  0.40826650712542656  1.0000
  C   C27       1.0  0.8138088791031982  0.14936566862675557  0.9082665071460919  1.0000
  C   C28       1.0  0.18619112072731295  0.8506343315218539  0.40826650712542656  1.0000
  C   C29       1.0  0.24605924102163  0.3658702671943567  0.8346899191475726  1.0000
  C   C30       1.0  0.7539407588088812  0.6341297329542527  0.33468991912690726  1.0000
  C   C31       1.0  0.7460592416062326  0.13412973287994803  0.8346899191475726  1.0000
  C   C32       1.0  0.2539407588936256  0.8658702672686613  0.33468991912690726  1.0000
  C   C33       1.0  0.20786835111361976  0.4222846708100953  0.6777222482671337  1.0000
  C   C34       1.0  0.7921316487168916  0.5777153293385141  0.1777222482464684  1.0000
  C   C35       1.0  0.7078683510288755  0.0777153292642094  0.6777222482671337  1.0000
  C   C36       1.0  0.2921316488016359  0.9222846708844  0.1777222482464684  1.0000
  C   C37       1.0  0.11157404410808375  0.42235986352034766  0.6761459422186836  1.0000
  C   C38       1.0  0.8884259557224274  0.5776401366282617  0.1761459421980183  1.0000
  C   C39       1.0  0.6115740440233394  0.07764013655395706  0.6761459422186836  1.0000
  C   C40       1.0  0.3884259558071719  0.9223598635946524  0.1761459421980183  1.0000
  C   C41       1.0  0.06833296201266925  0.4712996504194359  0.6004133653309198  1.0000
  C   C42       1.0  0.931667037817842  0.5287003497291735  0.10041336531025456  1.0000
  C   C43       1.0  0.5683329619279249  0.028700349654868805  0.6004133653309198  1.0000
  C   C44       1.0  0.43166703790258637  0.9712996504937406  0.10041336531025456  1.0000
  C   C45       1.0  0.11249507961126962  0.5168966672161184  0.5235143118087991  1.0000
  C   C46       1.0  0.8875049202192417  0.483103332932491  0.023514311788133804  1.0000
  C   C47       1.0  0.6124950795265252  0.9831033330067958  0.5235143118087991  1.0000
  C   C48       1.0  0.38750492030398603  0.01689666714181365  0.023514311788133804  1.0000
  C   C49       1.0  0.2087100897492237  0.5092614998255651  0.5189497204976726  1.0000
  C   C50       1.0  0.7912899100812876  0.49073849953338733  0.018949720477007277  1.0000
  C   C51       1.0  0.7087100903338264  0.990738499607692  0.5189497204976726  1.0000
  C   C52       1.0  0.29128991016603195  0.009261500540917327  0.018949720477007277  1.0000
  C   C53       1.0  0.25058577361393763  0.46337640671235303  0.5975888707983403  1.0000
  C   C54       1.0  0.7494142262165736  0.5366235934362563  0.09758887077767503  1.0000
  C   C55       1.0  0.7505857735291932  0.03662359336195164  0.5975888707983403  1.0000
  C   C56       1.0  0.249414226301318  0.9633764067866577  0.09758887077767503  1.0000
  C   C57       1.0  0.24897584619712626  0.5751598329612224  0.3645098327064919  1.0000
  C   C58       1.0  0.751024153633385  0.42484016718738704  0.8645098327271572  1.0000
  C   C59       1.0  0.7489758461123819  0.9248401672616917  0.3645098327064919  1.0000
  C   C60       1.0  0.25102415371812936  0.07515983288691767  0.8645098327271572  1.0000
  C   C61       1.0  0.3175291056964727  0.5927344789945969  0.2914969796838204  1.0000
  C   C62       1.0  0.6824708948033855  0.4072655211540126  0.7914969797044857  1.0000
  C   C63       1.0  0.8175291056117283  0.9072655212283173  0.2914969796838204  1.0000
  C   C64       1.0  0.1824708948881299  0.09273447892029212  0.7914969797044857  1.0000
  C   C65       1.0  0.4087513040863807  0.5712217397249614  0.2887307309977723  1.0000
  C   C66       1.0  0.5912486957441305  0.4287782596339911  0.7887307310184376  1.0000
  C   C67       1.0  0.9087513040016363  0.9287782597082958  0.2887307309977723  1.0000
  C   C68       1.0  0.0912486958288749  0.0712217396506567  0.7887307310184376  1.0000
  C   C69       1.0  0.4554111354630065  0.5958273424265156  0.20617637492141877  1.0000
  C   C70       1.0  0.5445888643675048  0.40417265772209376  0.7061763749420841  1.0000
  C   C71       1.0  0.955411135378262  0.9041726577963985  0.20617637492141877  1.0000
  C   C72       1.0  0.044588864452249154  0.0958273423522109  0.7061763749420841  1.0000
  C   C73       1.0  0.41177228789955933  0.6413519824294855  0.1287229368966119  1.0000
  C   C74       1.0  0.5882277119309519  0.3586480169294669  0.6287229369172772  1.0000
  C   C75       1.0  0.9117722878148149  0.8586480170037716  0.1287229368966119  1.0000
  C   C76       1.0  0.08822771201569628  0.1413519823551809  0.6287229369172772  1.0000
  C   C77       1.0  0.31962409012924875  0.661093694975257  0.13058165499079155  1.0000
  C   C78       1.0  0.6803759097012626  0.3389063051733523  0.6305816550114569  1.0000
  C   C79       1.0  0.8196240907138513  0.8389063052476571  0.13058165499079155  1.0000
  C   C80       1.0  0.1803759097860069  0.1610936949009524  0.6305816550114569  1.0000
  C   C81       1.0  0.2732338583299356  0.6353859768111061  0.2125778738355709  1.0000
  C   C82       1.0  0.7267661415005757  0.3646140225478464  0.7125778738562362  1.0000
  C   C83       1.0  0.7732338589145382  0.8646140226221511  0.2125778738355709  1.0000
  C   C84       1.0  0.22676614158532007  0.13538597752645828  0.7125778738562362  1.0000
  C   C85       1.0  0.17801400584123328  0.6410301261696743  0.2389060412015876  1.0000
  C   C86       1.0  0.8219859946586249  0.35896987318927825  0.7389060412222529  1.0000
  C   C87       1.0  0.6780140057564888  0.858969873263583  0.2389060412015876  1.0000
  C   C88       1.0  0.32198599474336936  0.14103012688502645  0.7389060412222529  1.0000
  C   C89       1.0  0.11132710460349164  0.63017629589458  0.948100441448162  1.0000
  C   C90       1.0  0.8886728952270196  0.3698237042540294  0.44810044142749667  1.0000
  C   C91       1.0  0.6113271045187473  0.869823704328334  0.948100441448162  1.0000
  C   C92       1.0  0.38867289531176397  0.13017629582027532  0.44810044142749667  1.0000
  C   C93       1.0  0.10516951531819946  0.6133616796332791  0.8514796605989693  1.0000
  C   C94       1.0  0.8948304845123118  0.3866383205153302  0.35147966057830393  1.0000
  C   C95       1.0  0.6051695152334551  0.886638320589635  0.8514796605989693  1.0000
  C   C96       1.0  0.39483048459705616  0.11336167955897448  0.35147966057830393  1.0000
  C   C97       1.0  0.11768130854055245  0.6986161524285124  0.7909023944370159  1.0000
  C   C98       1.0  0.8823186912899588  0.30138384772009696  0.2909023944163506  1.0000
  C   C99       1.0  0.617681308455808  0.8013838477944016  0.7909023944370159  1.0000
  C   C100      1.0  0.38231869137470315  0.19861615235420774  0.2909023944163506  1.0000
  C   C101      1.0  0.13344170571874167  0.7977713545813607  0.8300117702743798  1.0000
  C   C102      1.0  0.8665582947811166  0.20222864556724862  0.3300117702537144  1.0000
  C   C103      1.0  0.6334417056339973  0.7022286456415533  0.8300117702743798  1.0000
  C   C104      1.0  0.366558294196514  0.2977713545070561  0.3300117702537144  1.0000
  C   C105      1.0  0.13635017899775656  0.8078625350027551  0.9278734229487509  1.0000
  C   C106      1.0  0.8636498208327547  0.19213746514585428  0.42787342292808556  1.0000
  C   C107      1.0  0.6363501789130122  0.6921374652201591  0.9278734229487509  1.0000
  C   C108      1.0  0.3636498209174991  0.3078625349284504  0.42787342292808556  1.0000
  C   C109      1.0  0.11955624849981039  0.33010648623089806  0.3091128949318203  1.0000
  C   C110      1.0  0.8804437513307009  0.6698935139177113  0.8091128949524855  1.0000
  C   C111      1.0  0.619556248415066  0.16989351384340665  0.3091128949318203  1.0000
  C   C112      1.0  0.38044375141544523  0.8301064863052027  0.8091128949524855  1.0000
  C   C113      1.0  0.120079137676531  0.2653360650697626  0.38867387803984127  1.0000
  C   C114      1.0  0.8799208621539804  0.7346639350788468  0.8886738780605066  1.0000
  C   C115      1.0  0.6200791375917867  0.23466393500454205  0.38867387803984127  1.0000
  C   C116      1.0  0.3799208622387246  0.7653360651440674  0.8886738780605066  1.0000
  C   C117      1.0  0.12888112946959485  0.15657975857714082  0.37625898437573674  1.0000
  C   C118      1.0  0.8711188703609164  0.8434202415714686  0.876258984396402  1.0000
  C   C119      1.0  0.6288811300541974  0.3434202414971639  0.37625898437573674  1.0000
  C   C120      1.0  0.3711188704456608  0.6565797586514456  0.876258984396402  1.0000
  C   C121      1.0  0.13734754616139513  0.1164424170193884  0.2851436117895851  1.0000
  C   C122      1.0  0.8626524536691161  0.883557583129221  0.7851436111057772  1.0000
  C   C123      1.0  0.6373475460766508  0.38355758305491633  0.2851436117895851  1.0000
  C   C124      1.0  0.36265245375386046  0.6164424170936931  0.7851436111057772  1.0000
  C   C125      1.0  0.13667095684529434  0.18709545287061483  0.21007934188370603  1.0000
  C   C126      1.0  0.863329042985217  0.8129045464883377  0.7100793419043714  1.0000
  C   C127      1.0  0.63667095676055  0.312904546414033  0.21007934188370603  1.0000
  C   C128      1.0  0.3633290430699613  0.6870954529449195  0.7100793419043714  1.0000
  N   N1        1.0  0.10494441392823418  0.3576137337850674  0.03216517399560043  1.0000
  N   N2        1.0  0.8950555859022772  0.642386266363542  0.5321651740162657  1.0000
  N   N3        1.0  0.6049444138434898  0.14238626628923728  0.03216517399560043  1.0000
  N   N4        1.0  0.39505558598702145  0.8576137338593721  0.5321651740162657  1.0000
  N   N5        1.0  0.16197240997188458  0.3638574356798989  0.8780331551360646  1.0000
  N   N6        1.0  0.8380275898586266  0.6361425636790535  0.37803315511539926  1.0000
  N   N7        1.0  0.6619724098871402  0.13614256439440575  0.8780331551360646  1.0000
  N   N8        1.0  0.33802758994337107  0.8638574357542036  0.37803315511539926  1.0000
  N   N9        1.0  0.2672969982601238  0.5377245244134886  0.4473285663139257  1.0000
  N   N10       1.0  0.7327030015703875  0.46227547573512073  0.947328566334591  1.0000
  N   N11       1.0  0.7672969981753793  0.9622754750197686  0.4473285663139257  1.0000
  N   N12       1.0  0.23270300165513183  0.03772452433918396  0.947328566334591  1.0000
  N   N13       1.0  0.1660247483803945  0.6040900209458759  0.32694716447488326  1.0000
  N   N14       1.0  0.8339752514501168  0.39590997920273346  0.8269471644955485  1.0000
  N   N15       1.0  0.6660247482956501  0.8959099784873813  0.32694716447488326  1.0000
  N   N16       1.0  0.33397525153486113  0.10409002087157118  0.8269471644955485  1.0000
  N   N17       1.0  0.11227905590507094  0.6756360489996257  0.18476656277873235  1.0000
  N   N18       1.0  0.8877209439254403  0.32436395035932675  0.6847665627993977  1.0000
  N   N19       1.0  0.6122790558203265  0.8243639504336314  0.18476656277873235  1.0000
  N   N20       1.0  0.3877209440101847  0.175636048925321  0.6847665627993977  1.0000
  N   N21       1.0  0.2656027371396928  0.38899670115551693  0.7481731047537323  1.0000
  N   N22       1.0  0.7343972626908185  0.6110032982034356  0.24817310473306695  1.0000
  N   N23       1.0  0.7656027370549484  0.11100329812913083  0.7481731047537323  1.0000
  N   N24       1.0  0.23439726277556286  0.8889967012298217  0.24817310473306695  1.0000
  N   N25       1.0  0.12642721307262683  0.7254901164618651  0.9868107162942295  1.0000
  N   N26       1.0  0.8735727867578844  0.2745098836867443  0.4868107162735641  1.0000
  N   N27       1.0  0.6264272129878825  0.774509883761049  0.9868107162942295  1.0000
  N   N28       1.0  0.3735727868426288  0.2254901163875604  0.4868107162735641  1.0000
  N   N29       1.0  0.12763988841054058  0.29215103383539404  0.22108201117690077  1.0000
  N   N30       1.0  0.8723601114199707  0.7078489663132153  0.7210820111975661  1.0000
  N   N31       1.0  0.6276398883257962  0.20784896623891064  0.22108201117690077  1.0000
  N   N32       1.0  0.37236011150471504  0.7921510339096987  0.7210820111975661  1.0000
  O   O1        1.0  0.060280189038002835  0.3781996045707547  0.7427089786218806  1.0000
  O   O2        1.0  0.9397198107925084  0.6218003955778547  0.24270897860121532  1.0000
  O   O3        1.0  0.5602801896226055  0.12180039550355  0.7427089786218806  1.0000
  O   O4        1.0  0.43971981087725276  0.8781996046450594  0.24270897860121532  1.0000
  O   O5        1.0  0.061042213802855246  0.5650378961928534  0.4590000124726485  1.0000
  O   O6        1.0  0.938957786027656  0.43496210395575596  0.9590000124933138  1.0000
  O   O7        1.0  0.5610422137181108  0.9349621032404037  0.4590000124726485  1.0000
  O   O8        1.0  0.4389577861124004  0.0650378961185487  0.9590000124933138  1.0000
