data_image0
_chemical_formula_structural       H136C116S32
_chemical_formula_sum              "H136 C116 S32"
_cell_length_a       9.692696850244763
_cell_length_b       15.044590554433539
_cell_length_c       21.029885674649616
_cell_angle_alpha    90.0
_cell_angle_beta     90.30555095418173
_cell_angle_gamma    90.0

_space_group_name_H-M_alt    "P 1"
_space_group_IT_number       1

loop_
  _space_group_symop_operation_xyz
  'x, y, z'

loop_
  _atom_site_type_symbol
  _atom_site_label
  _atom_site_symmetry_multiplicity
  _atom_site_fract_x
  _atom_site_fract_y
  _atom_site_fract_z
  _atom_site_occupancy
  H   H1        1.0  0.46868493751977225  0.08252866075069792  0.5666292362693065  1.0000
  H   H2        1.0  0.5313150619968449  0.5825286609356967  0.9333707637425234  1.0000
  H   H3        1.0  0.5313150620928557  0.9174713389546089  0.4333707635683575  1.0000
  H   H4        1.0  0.46868493761578317  0.4174713394343008  0.06662923609514057  1.0000
  H   H5        1.0  0.5187172186346172  0.17229243631599764  0.5170451220883265  1.0000
  H   H6        1.0  0.48128278088199994  0.6722924358363057  0.9829548779235032  1.0000
  H   H7        1.0  0.48128278097801086  0.8277075640539999  0.48295487774933743  1.0000
  H   H8        1.0  0.518717218730628  0.32770756386900113  0.017045121914160574  1.0000
  H   H9        1.0  0.23205559332166406  0.14725754629109053  0.5765587291564571  1.0000
  H   H10       1.0  0.7679444072266608  0.6472575464760892  0.9234412708601467  1.0000
  H   H11       1.0  0.7679444073226718  0.8527424534142163  0.42344127068598086  1.0000
  H   H12       1.0  0.23205559341281898  0.35274245389390824  0.07655872945778766  1.0000
  H   H13       1.0  0.27656893760259266  0.23485948103511142  0.5246798113163226  1.0000
  H   H14       1.0  0.7234310619140244  0.7348594812201102  0.9753201886955073  1.0000
  H   H15       1.0  0.7234310620100353  0.7651405186701954  0.47532018852134134  1.0000
  H   H16       1.0  0.2765689376937475  0.2651405184851966  0.024679811617653213  1.0000
  H   H17       1.0  0.40716252160952704  0.19906894303065098  0.6556250755617855  1.0000
  H   H18       1.0  0.5928374789387978  0.6990689432156497  0.8443749244548183  1.0000
  H   H19       1.0  0.5928374779982449  0.8009310566746558  0.34437492475137493  1.0000
  H   H20       1.0  0.40716252170553796  0.30093105715434776  0.15562507538761966  1.0000
  H   H21       1.0  0.4627366332835432  0.28291228429248927  0.6027730278081991  1.0000
  H   H22       1.0  0.5372633662330739  0.7829122838127973  0.8972269722036308  1.0000
  H   H23       1.0  0.5372633663290848  0.7170877160775083  0.39722697202946494  1.0000
  H   H24       1.0  0.4627366333746981  0.2170877158925095  0.10277302810952962  1.0000
  H   H25       1.0  0.1752159220915729  0.26888734295317046  0.6626844784848607  1.0000
  H   H26       1.0  0.8247840774250441  0.7688873431381692  0.837315521526969  1.0000
  H   H27       1.0  0.824784077521055  0.7311126567521363  0.3373155213528032  1.0000
  H   H28       1.0  0.1752159221827278  0.23111265656713756  0.1626844787861914  1.0000
  H   H29       1.0  0.22175519797316987  0.3490769144562963  0.6053552634186201  1.0000
  H   H30       1.0  0.7782448015434471  0.8490769146412951  0.8946447365932095  1.0000
  H   H31       1.0  0.7782448016346021  0.6509230852490104  0.3946447368945404  1.0000
  H   H32       1.0  0.22175519806918081  0.1509230850640117  0.10535526324445421  1.0000
  H   H33       1.0  0.40416429195138753  0.4096343498151148  0.6778047344564206  1.0000
  H   H34       1.0  0.5958357085969372  0.9096343500001135  0.8221952655601833  1.0000
  H   H35       1.0  0.5958357086929482  0.5903656505548828  0.3221952653860173  1.0000
  H   H36       1.0  0.40416429204254245  0.09036565036988396  0.17780473475775124  1.0000
  H   H37       1.0  0.36471579921897834  0.32747949983578034  0.7355228303784833  1.0000
  H   H38       1.0  0.6352842002976387  0.827479500020779  0.7644771696333464  1.0000
  H   H39       1.0  0.6352842003887936  0.6725204998695264  0.2644771699346772  1.0000
  H   H40       1.0  0.36471579931498926  0.1725204996845277  0.23552283020431738  1.0000
  H   H41       1.0  0.9529509777485553  0.4273644993352952  0.6352718368827761  1.0000
  H   H42       1.0  0.04704902279976949  0.9273644988556031  0.8647281631338276  1.0000
  H   H43       1.0  0.04704902185921653  0.5726355010347023  0.36472816343038433  1.0000
  H   H44       1.0  0.9529509778445663  0.07263550084970359  0.1352718367086102  1.0000
  H   H45       1.0  0.9228814434889021  0.5500619707833311  0.5470616581512001  1.0000
  H   H46       1.0  0.07711855705942283  0.050061970598332325  0.9529383418654037  1.0000
  H   H47       1.0  0.07711855715543374  0.44993802958666645  0.4529383416912378  1.0000
  H   H48       1.0  0.9228814435849129  0.9499380297716652  0.04706165797703415  1.0000
  H   H49       1.0  0.2810301934987931  0.7704689654438017  0.5962709041868732  1.0000
  H   H50       1.0  0.7189698070495317  0.270468965258803  0.9037290958297308  1.0000
  H   H51       1.0  0.7189698071455427  0.22953103492619578  0.40372909565556475  1.0000
  H   H52       1.0  0.28103019255824013  0.7295310344465039  0.09627090448342984  1.0000
  H   H53       1.0  0.2464243999000904  0.8981814427656776  0.5124625442025241  1.0000
  H   H54       1.0  0.7535755996165265  0.39818144324536947  0.9875374558093057  1.0000
  H   H55       1.0  0.7535755997125375  0.10181855693962927  0.4875374556351399  1.0000
  H   H56       1.0  0.24642439999124532  0.6018185571246281  0.012462544503854703  1.0000
  H   H57       1.0  0.18005459156545803  0.9306444033383117  0.3177928916135234  1.0000
  H   H58       1.0  0.8199454091700327  0.4306444031533129  0.1822071085302451  1.0000
  H   H59       1.0  0.8199454090740218  0.06935559636699513  0.682207108704411  1.0000
  H   H60       1.0  0.18005459147430314  0.5693555965519939  0.8177928913121927  1.0000
  H   H61       1.0  0.2764059930231818  0.9218595620678357  0.38905252910263743  1.0000
  H   H62       1.0  0.723594006680601  0.4218595625475277  0.11094747103635712  1.0000
  H   H63       1.0  0.7235940065894462  0.07814043763747106  0.6109474707350265  1.0000
  H   H64       1.0  0.2764059929271709  0.5781404378224698  0.8890525292768034  1.0000
  H   H65       1.0  0.36213994469156285  0.813545610012837  0.3124216718481959  1.0000
  H   H66       1.0  0.6378600560487838  0.31354560982783836  0.18757832782007608  1.0000
  H   H67       1.0  0.637860055952773  0.18645438969246972  0.687578327994242  1.0000
  H   H68       1.0  0.362139944595552  0.6864543898774684  0.8124216720223619  1.0000
  H   H69       1.0  0.287405589543275  0.7559290901837511  0.37641496156793497  1.0000
  H   H70       1.0  0.7125944101605078  0.25592909066344305  0.12358503857105961  1.0000
  H   H71       1.0  0.7125944100644969  0.24407090952155572  0.6235850387452255  1.0000
  H   H72       1.0  0.2874055894521201  0.7440709097065544  0.8764149612666043  1.0000
  H   H73       1.0  0.13053774761375675  0.7954059937160295  0.2525094897273335  1.0000
  H   H74       1.0  0.8694622520900261  0.29540599419572144  0.2474905104116611  1.0000
  H   H75       1.0  0.869462253030579  0.2045940059892773  0.7474905101151044  1.0000
  H   H76       1.0  0.13053774751774583  0.704594006174276  0.7525094899014995  1.0000
  H   H77       1.0  0.0794129427181684  0.7215022768965416  0.31283948022479474  1.0000
  H   H78       1.0  0.9205870569856146  0.22150227671154277  0.1871605199141998  1.0000
  H   H79       1.0  0.9205870568944594  0.27849772347345597  0.6871605196128692  1.0000
  H   H80       1.0  0.07941294262215748  0.7784977229937641  0.8128394803989606  1.0000
  H   H81       1.0  0.3373584974713549  0.7013073417867611  0.22885171668300575  1.0000
  H   H82       1.0  0.6626415032689918  0.2013073416017624  0.2711482829852662  1.0000
  H   H83       1.0  0.662641503172981  0.29869265791854566  0.7711482831594322  1.0000
  H   H84       1.0  0.33735849737534396  0.7986926581035444  0.7288517168571716  1.0000
  H   H85       1.0  0.28997082914114075  0.6256017427623758  0.28885986773625755  1.0000
  H   H86       1.0  0.71002917159435  0.12560174324206783  0.21114013240751098  1.0000
  H   H87       1.0  0.710029171498339  0.374398256942931  0.7111401325816769  1.0000
  H   H88       1.0  0.2899708290499859  0.8743982571279296  0.7888598674349269  1.0000
  H   H89       1.0  0.1108760978032444  0.6712792118509239  0.1718999388466759  1.0000
  H   H90       1.0  0.8891239019053945  0.17127921166592514  0.32810006081682214  1.0000
  H   H91       1.0  0.8891239018093836  0.32872078785438286  0.828100060990988  1.0000
  H   H92       1.0  0.11087609873894132  0.8287207880393817  0.6718999390256158  1.0000
  H   H93       1.0  0.06874712018085867  0.5919611781907562  0.23027268009209353  1.0000
  H   H94       1.0  0.931252879522924  0.09196117800575745  0.26972732004690103  1.0000
  H   H95       1.0  0.9312528804634771  0.4080388221792413  0.7697273197503444  1.0000
  H   H96       1.0  0.06874712008484776  0.90803882236424  0.7302726802662595  1.0000
  H   H97       1.0  0.5226382426202881  0.4929773019189522  0.2192650518515245  1.0000
  H   H98       1.0  0.47736175708349465  0.9929773014392603  0.28073494828747014  1.0000
  H   H99       1.0  0.47736175698748373  0.5070226984510453  0.7807349484616359  1.0000
  H   H100      1.0  0.5226382425291333  0.0070226982660465025  0.7192650515501938  1.0000
  H   H101      1.0  0.5388842965032518  0.36412593949827593  0.3038379245098058  1.0000
  H   H102      1.0  0.4611157032053872  0.8641259396832747  0.1961620751536922  1.0000
  H   H103      1.0  0.46111570310937616  0.6358740602070309  0.6961620753278581  1.0000
  H   H104      1.0  0.5388842964072408  0.13587406068672284  0.8038379246839717  1.0000
  H   H105      1.0  0.0650370580914501  0.2676751025845135  0.3404924861827169  1.0000
  H   H106      1.0  0.9349629416123326  0.7676751027695122  0.15950751395627769  1.0000
  H   H107      1.0  0.9349629415163219  0.7323248971207933  0.6595075141304436  1.0000
  H   H108      1.0  0.06503705903200305  0.23232489693579456  0.8404924858861602  1.0000
  H   H109      1.0  0.08708673595310855  0.13361867195565494  0.4213335390986126  1.0000
  H   H110      1.0  0.9129132637506743  0.6336186721406537  0.07866646104038205  1.0000
  H   H111      1.0  0.9129132636595195  0.8663813277496518  0.5786664607390514  1.0000
  H   H112      1.0  0.08708673585709764  0.36638132822934383  0.9213335392727783  1.0000
  H   H113      1.0  0.5688930690856444  0.4016653047576094  0.4441223771841656  1.0000
  H   H114      1.0  0.43110693061813854  0.9016653042779175  0.05587762295482898  1.0000
  H   H115      1.0  0.43110693155383545  0.5983346956123881  0.5558776231337689  1.0000
  H   H116      1.0  0.5688930689944894  0.0983346954273893  0.944122376882835  1.0000
  H   H117      1.0  0.5031912607932847  0.33385884858925746  0.5050097859008229  1.0000
  H   H118      1.0  0.49680873975504025  0.8338588487742562  0.9949902141157808  1.0000
  H   H119      1.0  0.4968087388144873  0.6661411511160493  0.4949902144123376  1.0000
  H   H120      1.0  0.5031912608892957  0.16614115093105056  0.005009785726657057  1.0000
  H   H121      1.0  0.31841029766990164  0.44593073275915435  0.5269415326718279  1.0000
  H   H122      1.0  0.6815897018467154  0.9459307322794623  0.9730584673400022  1.0000
  H   H123      1.0  0.6815897019427264  0.5540692676108432  0.47305846716583616  1.0000
  H   H124      1.0  0.3184102977610565  0.05406926742584442  0.026941532973158405  1.0000
  H   H125      1.0  0.3139366149958775  0.41197174343661397  0.44624850969930346  1.0000
  H   H126      1.0  0.6860633847127614  0.9119717436216128  0.053751489964194536  1.0000
  H   H127      1.0  0.6860633846167504  0.5880282562686928  0.5537514901383604  1.0000
  H   H128      1.0  0.3139366148998666  0.08802825674838477  0.9462485098734694  1.0000
  H   H129      1.0  0.29137534782838664  0.5788199637931508  0.457470072471844  1.0000
  H   H130      1.0  0.7086246529119601  0.07881996360815209  0.042529927196427966  1.0000
  H   H131      1.0  0.7086246528159491  0.42118003657684666  0.5425299273705939  1.0000
  H   H132      1.0  0.2913753477323758  0.9211800367618455  0.95747007264601  1.0000
  H   H133      1.0  0.4403455967750509  0.5486979589196814  0.41425954129739123  1.0000
  H   H134      1.0  0.5596544039604399  0.04869795939937333  0.08574045884637731  1.0000
  H   H135      1.0  0.5596544038692849  0.4513020407856254  0.5857404585450467  1.0000
  H   H136      1.0  0.4403455966790399  0.9513020409706242  0.9142595414715572  1.0000
  C   C1        1.0  0.430142981047859  0.1323683959888918  0.5327101658499575  1.0000
  C   C2        1.0  0.5698570195004659  0.6323683961738906  0.9672898341666463  1.0000
  C   C3        1.0  0.569857018559913  0.867631603716415  0.467289834463203  1.0000
  C   C4        1.0  0.4301429811438699  0.3676316035314162  0.03271016567579156  1.0000
  C   C5        1.0  0.3180801379397457  0.1898175240906398  0.5613517034710063  1.0000
  C   C6        1.0  0.6819198615768712  0.6898175242756385  0.9386482965408237  1.0000
  C   C7        1.0  0.6819198616728822  0.8101824762793578  0.4386482963666577  1.0000
  C   C8        1.0  0.3180801380309006  0.310182476094359  0.06135170377233684  1.0000
  C   C9        1.0  0.3717739514427466  0.24414810205104318  0.6176017516299828  1.0000
  C   C10       1.0  0.6282260480738704  0.744148102236042  0.882398248381847  1.0000
  C   C11       1.0  0.6282260481698814  0.7558518976542636  0.3823982482076812  1.0000
  C   C12       1.0  0.37177395153875753  0.25585189746926484  0.11760175145581685  1.0000
  C   C13       1.0  0.26283134702906813  0.30720102572934516  0.6439755674644801  1.0000
  C   C14       1.0  0.7371686535192568  0.8072010252496531  0.8560244325521236  1.0000
  C   C15       1.0  0.7371686536152676  0.6927989746406523  0.35602443237795767  1.0000
  C   C16       1.0  0.26283134712022305  0.19279897445565364  0.14397556776581086  1.0000
  C   C17       1.0  0.3216775478596414  0.3664303298952471  0.6958933969319188  1.0000
  C   C18       1.0  0.6783224526886835  0.8664303300802458  0.8041066030846851  1.0000
  C   C19       1.0  0.6783224527846944  0.6335696698100597  0.30410660291051905  1.0000
  C   C20       1.0  0.32167754795565234  0.13356966962506092  0.19589339675775294  1.0000
  C   C21       1.0  0.13303609189783888  0.49886353190172195  0.6696570942897339  1.0000
  C   C22       1.0  0.866963908655342  0.9988635320867207  0.8303429052513733  1.0000
  C   C23       1.0  0.8669639087464969  0.5011364678035849  0.330342905552704  1.0000
  C   C24       1.0  0.13303609198899377  0.0011364676185860987  0.1696570945910645  1.0000
  C   C25       1.0  0.021226277278272608  0.4841834122134586  0.629782779733631  1.0000
  C   C26       1.0  0.9787737232700524  0.9841834123984574  0.8702172202829727  1.0000
  C   C27       1.0  0.9787737233612072  0.515816588156539  0.3702172205843034  1.0000
  C   C28       1.0  0.02122627634257567  0.015816587971540147  0.12978277955469117  1.0000
  C   C29       1.0  0.006062626861203195  0.5497084816019034  0.5820543912808392  1.0000
  C   C30       1.0  0.9939373726554137  0.04970848141690473  0.9179456087309904  1.0000
  C   C31       1.0  0.9939373727514248  0.45029151810340334  0.4179456085568246  1.0000
  C   C32       1.0  0.006062626957214109  0.950291518288402  0.08205439110667342  1.0000
  C   C33       1.0  0.10655305213784547  0.6156952518239382  0.5849513714001597  1.0000
  C   C34       1.0  0.8934469473787714  0.11569525163893946  0.91504862861167  1.0000
  C   C35       1.0  0.8934469474747826  0.3843047485460593  0.4150486284375043  1.0000
  C   C36       1.0  0.10655305222900036  0.884304748731058  0.08495137170149036  1.0000
  C   C37       1.0  0.12341991018728055  0.6935657877990603  0.5459653587551185  1.0000
  C   C38       1.0  0.8765800893293364  0.19356578761406162  0.9540346412567112  1.0000
  C   C39       1.0  0.8765800894204915  0.30643421257093717  0.4540346415580419  1.0000
  C   C40       1.0  0.12341991028329145  0.806434212755936  0.04596535858095268  1.0000
  C   C41       1.0  0.20957240202976526  0.7662076444216017  0.5562256837324264  1.0000
  C   C42       1.0  0.7904275985185596  0.26620764490129367  0.9437743162841774  1.0000
  C   C43       1.0  0.7904275986097145  0.23379235528370512  0.44377431658550814  1.0000
  C   C44       1.0  0.20957240109406833  0.7337923554687039  0.05622568355348649  1.0000
  C   C45       1.0  0.19193233744220808  0.8348949700261841  0.5111827553067684  1.0000
  C   C46       1.0  0.8080676620744089  0.3348949698411852  0.9888172447050616  1.0000
  C   C47       1.0  0.8080676621704199  0.16510502967912283  0.4888172445308956  1.0000
  C   C48       1.0  0.191932337538219  0.6651050298641216  0.011182755132602444  1.0000
  C   C49       1.0  0.09385857385089433  0.8145651831241492  0.46521764763506707  1.0000
  C   C50       1.0  0.9061414258528886  0.31456518293915037  0.034782352503927465  1.0000
  C   C51       1.0  0.9061414257568777  0.18543481724584837  0.5347823526780934  1.0000
  C   C52       1.0  0.09385857375973944  0.6854348167661565  0.9652176473337364  1.0000
  C   C53       1.0  0.2035200830664531  0.8863826125244857  0.357998762912873  1.0000
  C   C54       1.0  0.7964799166373298  0.3863826123394869  0.14200123722612154  1.0000
  C   C55       1.0  0.7964799165413189  0.11361738784551188  0.6420012374002875  1.0000
  C   C56       1.0  0.20352008297529825  0.6136173873658199  0.8579987626115424  1.0000
  C   C57       1.0  0.26273742365543973  0.7983840654580215  0.33517214155073694  1.0000
  C   C58       1.0  0.7372625760483431  0.2983840652730228  0.16482785858825763  1.0000
  C   C59       1.0  0.7372625759523322  0.2016159342472852  0.6648278587624237  1.0000
  C   C60       1.0  0.2627374235642848  0.701615934432284  0.8351721412494063  1.0000
  C   C61       1.0  0.17066167050668188  0.7481186303659947  0.2882363822051199  1.0000
  C   C62       1.0  0.8293383291971009  0.24811863018099595  0.21176361793387474  1.0000
  C   C63       1.0  0.8293383291010901  0.25188136933931204  0.7117636181080407  1.0000
  C   C64       1.0  0.17066167144723485  0.7518813695243108  0.7882363819085632  1.0000
  C   C65       1.0  0.24782754424100342  0.673427829314659  0.25408736463867904  1.0000
  C   C66       1.0  0.7521724554627794  0.17342782912966023  0.24591263550031553  1.0000
  C   C67       1.0  0.7521724564033324  0.3265721703906478  0.745912635203759  1.0000
  C   C68       1.0  0.2478275441449925  0.8265721705756466  0.7540873648128449  1.0000
  C   C69       1.0  0.15567025623227518  0.6249310884189762  0.20674105433379047  1.0000
  C   C70       1.0  0.8443297434715078  0.12493108889866818  0.29325894580520406  1.0000
  C   C71       1.0  0.8443297433803528  0.37506891128633063  0.7932589455038733  1.0000
  C   C72       1.0  0.15567025613626426  0.8750689114713293  0.7067410545079564  1.0000
  C   C73       1.0  0.3017575944751115  0.4680808483634502  0.21352589775058747  1.0000
  C   C74       1.0  0.6982424062652351  0.968080848548449  0.2864741019176845  1.0000
  C   C75       1.0  0.6982424061692243  0.5319191513418566  0.7864741020918504  1.0000
  C   C76       1.0  0.30175759437910066  0.03191915182154859  0.7135258979247534  1.0000
  C   C77       1.0  0.4349912109651692  0.4539496934323279  0.23546187832633103  1.0000
  C   C78       1.0  0.5650087897751775  0.9539496936173265  0.26453812134194093  1.0000
  C   C79       1.0  0.5650087896791667  0.5460503062729789  0.7645381215161069  1.0000
  C   C80       1.0  0.43499121086915826  0.046050306087980185  0.7354618785004969  1.0000
  C   C81       1.0  0.44349239508398736  0.38472087020635637  0.2806774016929213  1.0000
  C   C82       1.0  0.5565076046197954  0.8847208703913552  0.21932259844607327  1.0000
  C   C83       1.0  0.5565076045237847  0.6152791294989505  0.7193225986202392  1.0000
  C   C84       1.0  0.4434923960245404  0.11527912931395168  0.7806774013963647  1.0000
  C   C85       1.0  0.31705234924961295  0.3456312872846932  0.29420461907316836  1.0000
  C   C86       1.0  0.6829476504541699  0.845631287469692  0.2057953810658262  1.0000
  C   C87       1.0  0.682947650358159  0.6543687124206137  0.7057953812399922  1.0000
  C   C88       1.0  0.3170523491584581  0.15436871223561485  0.7942046187718377  1.0000
  C   C89       1.0  0.289046216240213  0.2735953434629701  0.3374897376413706  1.0000
  C   C90       1.0  0.7109537834684259  0.7735953436479689  0.16251026202212743  1.0000
  C   C91       1.0  0.710953783372415  0.7264046562423366  0.6625102621962934  1.0000
  C   C92       1.0  0.28904621614420206  0.22640465605733792  0.8374897378155364  1.0000
  C   C93       1.0  0.16269455333941574  0.23966478828082408  0.3566386265721138  1.0000
  C   C94       1.0  0.8373054463643671  0.7396647884658228  0.14336137356688075  1.0000
  C   C95       1.0  0.8373054462732121  0.7603352114244827  0.6433613732655501  1.0000
  C   C96       1.0  0.16269455324340484  0.2603352119041747  0.8566386267462798  1.0000
  C   C97       1.0  0.17404791679588333  0.16808153474504522  0.3999055482731125  1.0000
  C   C98       1.0  0.8259520839396074  0.668081534930044  0.10009445187065613  1.0000
  C   C99       1.0  0.8259520838435964  0.8319184649602616  0.600094452044822  1.0000
  C   C100      1.0  0.17404791670472844  0.33191846543995357  0.8999055479717818  1.0000
  C   C101      1.0  0.30953674278950943  0.1460114685110292  0.41388078269655  1.0000
  C   C102      1.0  0.6904632579508373  0.646011468696028  0.08611921697172199  1.0000
  C   C103      1.0  0.6904632578548264  0.8539885311942776  0.586119217145888  1.0000
  C   C104      1.0  0.3095367426934985  0.35398853167396954  0.913880782870716  1.0000
  C   C105      1.0  0.5162179475589698  0.40359607249069607  0.49048024726637773  1.0000
  C   C106      1.0  0.48378205214966913  0.9035960720110041  0.009519752397120282  1.0000
  C   C107      1.0  0.4837820520536582  0.5964039278793014  0.5095197525712861  1.0000
  C   C108      1.0  0.5162179484946666  0.09640392769430269  0.9904802474453177  1.0000
  C   C109      1.0  0.3757862179376143  0.44864499140595854  0.48167476104303614  1.0000
  C   C110      1.0  0.6242137817661686  0.9486449915909573  0.01832523909595851  1.0000
  C   C111      1.0  0.6242137816750137  0.5513550082993482  0.5183252387946279  1.0000
  C   C112      1.0  0.3757862178416034  0.05135500877904022  0.981674761217202  1.0000
  C   C113      1.0  0.39270015595043817  0.5460891175651764  0.4618880122399836  1.0000
  C   C114      1.0  0.6072998447850525  0.046089117380177694  0.03811198790378498  1.0000
  C   C115      1.0  0.6072998446938976  0.4539108821401303  0.5381119876024544  1.0000
  C   C116      1.0  0.3927001558544272  0.9539108823251291  0.9618880124141495  1.0000
  S   S1        1.0  0.37049820194372546  0.06476053080174267  0.4656962255169695  1.0000
  S   S2        1.0  0.6295017987917653  0.5647605303220508  0.03430377462679901  1.0000
  S   S3        1.0  0.6295017987006103  0.9352394695682549  0.5343037743254684  1.0000
  S   S4        1.0  0.3704982018477146  0.4352394693832561  0.9656962256911356  1.0000
  S   S5        1.0  0.19191550950370428  0.43642770909874185  0.7339162213335755  1.0000
  S   S6        1.0  0.8080844900129127  0.9364277086190499  0.7660837786782542  1.0000
  S   S7        1.0  0.8080844901089237  0.5635722912712557  0.2660837785040884  1.0000
  S   S8        1.0  0.1919155095997152  0.06357229108625691  0.2339162211594096  1.0000
  S   S9        1.0  0.2187206149954874  0.5951084097374497  0.6475009192710103  1.0000
  S   S10       1.0  0.7812793855528375  0.09510840955245095  0.8524990807455936  1.0000
  S   S11       1.0  0.7812793856439924  0.4048915906325478  0.3524990810469241  1.0000
  S   S12       1.0  0.21872061509149826  0.9048915901528558  0.1475009190968444  1.0000
  S   S13       1.0  0.025377547410131148  0.7096238120520905  0.4778937707569056  1.0000
  S   S14       1.0  0.9746224522936517  0.20962381186709164  0.022106229382089008  1.0000
  S   S15       1.0  0.9746224521976409  0.2903761883179071  0.5221062295562549  1.0000
  S   S16       1.0  0.025377547318976262  0.7903761878382152  0.9778937704555749  1.0000
  S   S17       1.0  0.040083502826600864  0.8776845619177552  0.40035052436702334  1.0000
  S   S18       1.0  0.9599164968771821  0.37768456173275655  0.09964947577197117  1.0000
  S   S19       1.0  0.959916496781171  0.12231543845224221  0.5996494759461372  1.0000
  S   S20       1.0  0.04008350376715382  0.6223154386372409  0.9003505240704668  1.0000
  S   S21       1.0  0.2451813053336109  0.5441006447056619  0.15684814059016458  1.0000
  S   S22       1.0  0.7548186943701719  0.044100644520663146  0.34315185954883004  1.0000
  S   S23       1.0  0.7548186942741609  0.45589935499964485  0.843151859722996  1.0000
  S   S24       1.0  0.24518130524245604  0.9558993551846436  0.6568481402888339  1.0000
  S   S25       1.0  0.18751081086067525  0.3943211819913412  0.24901228174375997  1.0000
  S   S26       1.0  0.8124891888431076  0.8943211815116492  0.25098771839523465  1.0000
  S   S27       1.0  0.8124891887470967  0.6056788183786563  0.7509877185694006  1.0000
  S   S28       1.0  0.18751081076952036  0.10567881819365757  0.7490122814424293  1.0000
  S   S29       1.0  0.4227819659314301  0.21376414654583392  0.3721868325187444  1.0000
  S   S30       1.0  0.5772180348040606  0.7137641467308327  0.12781316762502415  1.0000
  S   S31       1.0  0.5772180347129058  0.7862358538241636  0.6278131673236935  1.0000
  S   S32       1.0  0.42278196583541905  0.2862358536391648  0.8721868326929103  1.0000
