data_image0
_chemical_formula_structural       H62C68N4O14F16I6
_chemical_formula_sum              "H62 C68 N4 O14 F16 I6"
_cell_length_a       9.279364513481351
_cell_length_b       11.829893332137335
_cell_length_c       18.171543431741426
_cell_angle_alpha    96.49360666750181
_cell_angle_beta     97.73219700411993
_cell_angle_gamma    99.78895544002306

_space_group_name_H-M_alt    "P 1"
_space_group_IT_number       1

loop_
  _space_group_symop_operation_xyz
  'x, y, z'

loop_
  _atom_site_type_symbol
  _atom_site_label
  _atom_site_symmetry_multiplicity
  _atom_site_fract_x
  _atom_site_fract_y
  _atom_site_fract_z
  _atom_site_occupancy
  H   H1        1.0  0.6082844443816038  0.5793470280091494  0.8417597467156632  1.0000
  H   H2        1.0  0.3917155556255167  0.4206529719020642  0.15824025367498898  1.0000
  H   H3        1.0  0.7595799877920476  0.769991968987282  0.8572125950455565  1.0000
  H   H4        1.0  0.240420012215073  0.2300080309239316  0.14278740534509587  1.0000
  H   H5        1.0  0.7678891419642476  0.9797845957303287  0.8420429883903023  1.0000
  H   H6        1.0  0.23211085787958796  0.02021540406423717  0.1579570114395551  1.0000
  H   H7        1.0  0.39357226802674844  0.9008104961253498  0.6804571473667639  1.0000
  H   H8        1.0  0.6064277320033835  0.0991895045275692  0.3195428524656831  1.0000
  H   H9        1.0  0.35426830638492834  0.6882452965435899  0.697278393398384  1.0000
  H   H10       1.0  0.6457316936221923  0.3117547033676237  0.30272160699226824  1.0000
  H   H11       1.0  0.7286767924851346  0.5655144213045843  0.7339510314048551  1.0000
  H   H12       1.0  0.271323207521986  0.4344855786066294  0.26604896898579716  1.0000
  H   H13       1.0  0.37298972151491827  0.34217456624019  0.6885789066558434  1.0000
  H   H14       1.0  0.6270102783289172  0.6578254335543758  0.31142109317401395  1.0000
  H   H15       1.0  0.3690170004908546  0.13536329556367993  0.7084400666660364  1.0000
  H   H16       1.0  0.6309829993529809  0.8646367042308861  0.2915599331638209  1.0000
  H   H17       1.0  0.81382669540282  0.20847236847508183  0.8015615534601914  1.0000
  H   H18       1.0  0.18617330444101546  0.791527631319484  0.19843844636966604  1.0000
  H   H19       1.0  0.8350035251470349  0.4189126839026083  0.7864762505677881  1.0000
  H   H20       1.0  0.1649964748830971  0.5810873167503107  0.21352374926465878  1.0000
  H   H21       1.0  0.9309030394131366  0.8964191258176128  0.7560364611305426  1.0000
  H   H22       1.0  0.06909696061699541  0.10358087483530606  0.2439635387019045  1.0000
  H   H23       1.0  0.06801887427733201  0.02687189656135835  0.7814003977152859  1.0000
  H   H24       1.0  0.9319811255665035  0.9731281032332074  0.2185996021145716  1.0000
  H   H25       1.0  0.16442944933629342  0.8861462097513788  0.7015916830826697  1.0000
  H   H26       1.0  0.8355705508571237  0.11385379101818771  0.29840831731057205  1.0000
  H   H27       1.0  0.003858973478394001  0.8653550732980813  0.6312108395136286  1.0000
  H   H28       1.0  0.9961410267150229  0.13464492747148527  0.3687891608796132  1.0000
  H   H29       1.0  0.1025933294350726  0.15860077130472697  0.5891895899923665  1.0000
  H   H30       1.0  0.8974066705720479  0.8413992286064865  0.4108104103982857  1.0000
  H   H31       1.0  0.9670923638971202  0.027513569852949712  0.5639368706145305  1.0000
  H   H32       1.0  0.03290763594671531  0.9724864299416163  0.43606312921532697  1.0000
  H   H33       1.0  0.02641389475394118  0.1912347950929521  0.7130963157632153  1.0000
  H   H34       1.0  0.9735861061691513  0.8087652047030157  0.28690368407171835  1.0000
  H   H35       1.0  0.8640164566061499  0.16785274794390592  0.6436923633409929  1.0000
  H   H36       1.0  0.13598354323768566  0.8321472518506601  0.3563076364888646  1.0000
  H   H37       1.0  0.45089960058435413  0.9197067984149573  0.9247492860485946  1.0000
  H   H38       1.0  0.5491003994457778  0.08029320223796153  0.07525071378385213  1.0000
  H   H39       1.0  0.30289711415696713  0.8355658524810379  0.8553557559153752  1.0000
  H   H40       1.0  0.6971028858731648  0.16443414817188104  0.1446442439170717  1.0000
  H   H41       1.0  0.11560892857333503  0.889156003518984  0.9286770593681674  1.0000
  H   H42       1.0  0.8843910714567971  0.11084399713393478  0.07132294046427963  1.0000
  H   H43       1.0  0.24771197646790283  0.8338993660234432  0.9889438451434649  1.0000
  H   H44       1.0  0.7522880244551898  0.16610063377252468  0.011056154691468678  1.0000
  H   H45       1.0  0.27826525782624856  0.18458828444395714  0.012259169409694496  1.0000
  H   H46       1.0  0.7217347420175869  0.8154117153506086  0.9877408304201629  1.0000
  H   H47       1.0  0.13434839208281962  0.09918932789769723  0.9425700201738006  1.0000
  H   H48       1.0  0.8656516079243011  0.9008106720135165  0.05742998021685167  1.0000
  H   H49       1.0  0.3382749710154435  0.18625458295905548  0.8792400710423902  1.0000
  H   H50       1.0  0.6617250290146885  0.8137454176938634  0.12075992879005679  1.0000
  H   H51       1.0  0.4701176108822657  0.13092192123670068  0.9396251615841623  1.0000
  H   H52       1.0  0.5298823889615698  0.8690780785578653  0.06037483824569509  1.0000
  H   H53       1.0  0.7314324637928321  0.9656144471392848  0.46564166233346754  1.0000
  H   H54       1.0  0.2685675362142886  0.03438555277192894  0.5343583380571847  1.0000
  H   H55       1.0  0.6937753909380932  0.10051346150295644  0.5062252744450617  1.0000
  H   H56       1.0  0.3062246090690273  0.8994865384082571  0.4937747259455906  1.0000
  H   H57       1.0  0.5501293496466207  0.8576494201685225  0.5332521235143979  1.0000
  H   H58       1.0  0.4498706501972148  0.1423505796260436  0.46674787631545955  1.0000
  H   H59       1.0  0.6768517790751131  0.9640748315592373  0.6003070844335555  1.0000
  H   H60       1.0  0.323148222034276  0.035925169095083455  0.3996929154039676  1.0000
  H   H61       1.0  0.5861240350310284  0.03836591168445155  0.757852427917588  1.0000
  H   H62       1.0  0.4138759648128072  0.9616340881101143  0.24214757191226946  1.0000
  C   C1        1.0  0.2244907099204923  0.41173982506519236  0.8406439116276907  1.0000
  C   C2        1.0  0.7755092899233431  0.5882601747293736  0.15935608820216676  1.0000
  C   C3        1.0  0.16039437219587452  0.3801086863729608  0.9018624513412975  1.0000
  C   C4        1.0  0.839605627647961  0.6198913134216051  0.09813754848855988  1.0000
  C   C5        1.0  0.20718538624666571  0.44186435618635506  0.9733000419784149  1.0000
  C   C6        1.0  0.7928146135971698  0.5581356436082109  0.02669995785144261  1.0000
  C   C7        1.0  0.3197666592678619  0.53819368251139  0.9805277685273259  1.0000
  C   C8        1.0  0.6802333407392587  0.4618063173998236  0.019472231863326382  1.0000
  C   C9        1.0  0.3832375056163034  0.5722601511783526  0.919323943802256  1.0000
  C   C10       1.0  0.6167624942275322  0.42773984861621345  0.0806760560276014  1.0000
  C   C11       1.0  0.33919335526322425  0.5081959952551391  0.8476528074739275  1.0000
  C   C12       1.0  0.6608066445806113  0.4918040045394268  0.15234719235592994  1.0000
  C   C13       1.0  0.5439622439884468  0.5877441109075997  0.7879857012775849  1.0000
  C   C14       1.0  0.4560377558553887  0.41225588888696624  0.21201429855227255  1.0000
  C   C15       1.0  0.5552466424665642  0.7136308298877924  0.778504651062793  1.0000
  C   C16       1.0  0.44475335737727145  0.2863691699067736  0.2214953487670645  1.0000
  C   C17       1.0  0.6743292204014059  0.7954765508206514  0.8187482586269605  1.0000
  C   C18       1.0  0.3256707794424296  0.20452344897391464  0.18125174120289692  1.0000
  C   C19       1.0  0.6819634204824108  0.911027762729036  0.8101031001523273  1.0000
  C   C20       1.0  0.31803657936142465  0.0889722370655298  0.18989689967753004  1.0000
  C   C21       1.0  0.46647496392633314  0.8658678301081231  0.720356300745532  1.0000
  C   C22       1.0  0.533525036267084  0.13413217066144353  0.2796436996477097  1.0000
  C   C23       1.0  0.44911418609975373  0.7496816982643916  0.7288219296796973  1.0000
  C   C24       1.0  0.5508858137440819  0.2503183015301744  0.2711780701501602  1.0000
  C   C25       1.0  0.6116362347490827  0.5219482660883485  0.7277004393930611  1.0000
  C   C26       1.0  0.38836376509475284  0.47805173370621745  0.2722995604367964  1.0000
  C   C27       1.0  0.603777077109146  0.39641755653440347  0.7374814972885864  1.0000
  C   C28       1.0  0.39622292289797467  0.6035824433768102  0.2625185031020658  1.0000
  C   C29       1.0  0.47168034919618224  0.3158738192968897  0.7151963791578263  1.0000
  C   C30       1.0  0.5283196506476534  0.6841261804976763  0.2848036206720312  1.0000
  C   C31       1.0  0.4695631103377029  0.201162145285724  0.7257209746773725  1.0000
  C   C32       1.0  0.5304368895061325  0.798837854508842  0.2742790251524849  1.0000
  C   C33       1.0  0.7182438725253191  0.24227864418622397  0.7779337797535983  1.0000
  C   C34       1.0  0.281756127504813  0.7577213564666948  0.22206622007884858  1.0000
  C   C35       1.0  0.7295922722663615  0.35875644245282823  0.7695505458827999  1.0000
  C   C36       1.0  0.270407727577474  0.6412435573417378  0.23044945394705754  1.0000
  C   C37       1.0  0.6190401018602526  0.5246745752752038  0.5981698875823926  1.0000
  C   C38       1.0  0.3809598979835828  0.4753254245193621  0.40183011224746484  1.0000
  C   C39       1.0  0.6077884023652717  0.4197689248542673  0.5516434316516617  1.0000
  C   C40       1.0  0.3922115976648603  0.5802310757986515  0.4483565681807852  1.0000
  C   C41       1.0  0.6863670391403441  0.4132049113108672  0.49175947847913076  1.0000
  C   C42       1.0  0.3136329608897878  0.5867950893420517  0.5082405213533162  1.0000
  C   C43       1.0  0.777371250917337  0.510497817744887  0.4752144353322467  1.0000
  C   C44       1.0  0.22262874892649848  0.48950218204967894  0.5247855644976107  1.0000
  C   C45       1.0  0.7891460382117516  0.6149481110271954  0.5215559662530109  1.0000
  C   C46       1.0  0.21085396163208397  0.38505188876737045  0.4784440335768464  1.0000
  C   C47       1.0  0.7123063747289087  0.6222281628660716  0.5822328584590442  1.0000
  C   C48       1.0  0.28769362511492685  0.37777183692849436  0.41776714137081317  1.0000
  C   C49       1.0  0.9910480626005773  0.9707122777795689  0.7346185413388002  1.0000
  C   C50       1.0  0.008951937243258216  0.029287722014997023  0.26538145849105715  1.0000
  C   C51       1.0  0.07780230370486277  0.9282847962182452  0.6757614254331069  1.0000
  C   C52       1.0  0.9221976961389727  0.07171520357632065  0.32423857439675047  1.0000
  C   C53       1.0  0.04160110790888151  0.08505702196703285  0.6110950787129323  1.0000
  C   C54       1.0  0.958398891934954  0.9149429778275331  0.3889049211169251  1.0000
  C   C55       1.0  0.9527339672612489  0.12719204632089337  0.6693845228672204  1.0000
  C   C56       1.0  0.04726603274587152  0.8728079535903202  0.33061547752343184  1.0000
  C   C57       1.0  0.3349053090579766  0.9126725556640176  0.8979784396168111  1.0000
  C   C58       1.0  0.6650946907858588  0.08732744413054834  0.1020215602130462  1.0000
  C   C59       1.0  0.23229800415334573  0.9050826021011465  0.9564539794850071  1.0000
  C   C60       1.0  0.7677019958537749  0.09491739781006713  0.04354602090564512  1.0000
  C   C61       1.0  0.2501833662982954  0.10708391047346909  0.9699564521498092  1.0000
  C   C62       1.0  0.7498166337088251  0.8929160894377445  0.030043548240843116  1.0000
  C   C63       1.0  0.35355746219649126  0.11506119086237644  0.911738802545907  1.0000
  C   C64       1.0  0.6464425376473443  0.8849388089321895  0.08826119728395047  1.0000
  C   C65       1.0  0.6462277594740249  0.007823228805489463  0.48717354510508115  1.0000
  C   C66       1.0  0.35377224036981064  0.9921767709890766  0.5128264547247763  1.0000
  C   C67       1.0  0.5894675084640966  0.9514398355113419  0.5512894247780696  1.0000
  C   C68       1.0  0.4105324917293204  0.048560165258224715  0.4487105756151721  1.0000
  N   N1        1.0  0.5798265399175607  0.9430980198010956  0.761420588593253  1.0000
  N   N2        1.0  0.42017346027585634  0.05690198096847099  0.2385794117999888  1.0000
  N   N3        1.0  0.5911542200442168  0.16544367558305348  0.7564551557465197  1.0000
  N   N4        1.0  0.4088457799629037  0.8345563243281603  0.24354484464413262  1.0000
  O   O1        1.0  0.3906374875199813  0.5338636135597306  0.783795218498761  1.0000
  O   O2        1.0  0.6093625125101507  0.4661363870931884  0.2162047813336859  1.0000
  O   O3        1.0  0.5353958733334481  0.5336580379799295  0.6545127407803274  1.0000
  O   O4        1.0  0.46460412667367246  0.4663419619312841  0.3454872596103249  1.0000
  O   O5        1.0  0.8825203993477733  0.032726804096117404  0.7030515255737425  1.0000
  O   O6        1.0  0.11747960065934719  0.9672731958150963  0.2969484748169097  1.0000
  O   O7        1.0  0.14968700575124425  0.024001084504272435  0.6436221813011728  1.0000
  O   O8        1.0  0.8503129951718483  0.9759989152916956  0.35637781853376077  1.0000
  O   O9        1.0  0.32287088164243094  0.010896027732159455  0.8591205913795954  1.0000
  O   O10       1.0  0.6771291183646897  0.9891039721790541  0.14087940901105694  1.0000
  O   O11       1.0  0.262797590922023  0.009590613605806042  0.009201380868817754  1.0000
  O   O12       1.0  0.737202409271394  0.9904093871637606  0.9907986195244242  1.0000
  O   O13       1.0  0.47033719472996943  0.002193694356867702  0.5751151429015497  1.0000
  O   O14       1.0  0.5296628051138661  0.9978063054376982  0.4248848569283077  1.0000
  F   F1        1.0  0.17374298776648883  0.3496373233361972  0.7720198414373506  1.0000
  F   F2        1.0  0.8262570124269282  0.6503626774333693  0.22798015895589127  1.0000
  F   F3        1.0  0.048098012851786526  0.2863775211654276  0.8899961118639035  1.0000
  F   F4        1.0  0.951901986992049  0.7136224786291383  0.11000388796595392  1.0000
  F   F5        1.0  0.3694146739924621  0.6048510923711315  0.04823148847063571  1.0000
  F   F6        1.0  0.6305853260146584  0.3951489075400821  0.9517685119200165  1.0000
  F   F7        1.0  0.48683377176952464  0.6715572828278278  0.9300383875247847  1.0000
  F   F8        1.0  0.5131662280743109  0.32844271696673816  0.06996161230507265  1.0000
  F   F9        1.0  0.5166610016092272  0.3235334468036136  0.5632007851737866  1.0000
  F   F10       1.0  0.48333899858418994  0.6764665539659529  0.43679921521945536  1.0000
  F   F11       1.0  0.6705341111947888  0.3086662157913318  0.4491493841076698  1.0000
  F   F12       1.0  0.3294658886490467  0.6913337840032341  0.5508506157221876  1.0000
  F   F13       1.0  0.8767720134985285  0.7124018940904037  0.5084669819575598  1.0000
  F   F14       1.0  0.12322798653160336  0.28759810656251517  0.491533017874887  1.0000
  F   F15       1.0  0.7255806260366852  0.7250570076626861  0.6258946488720317  1.0000
  F   F16       1.0  0.2744193739934468  0.2749429929902328  0.3741053509604152  1.0000
  I   I1        1.0  0.10124598569243318  0.3984925577828611  0.06689504605401733  1.0000
  I   I2        1.0  0.8987540141514022  0.6015074420117048  0.93310495377584  1.0000
  I   I3        1.0  0.8862927624488932  0.4926340018385897  0.38127067845954954  1.0000
  I   I4        1.0  0.11370723774452383  0.5073659989309769  0.6187293219336922  1.0000
  I   I5        1.0  0.9713967713384731  0.3480195289382468  0.220746620717397  1.0000
  I   I6        1.0  0.02860322850536246  0.6519804708563192  0.7792533791124605  1.0000
