data_image0
_chemical_formula_structural       H20C22N4O8S2Br4
_chemical_formula_sum              "H20 C22 N4 O8 S2 Br4"
_cell_length_a       5.883373426786323
_cell_length_b       9.87865783646204
_cell_length_c       12.299507187806052
_cell_angle_alpha    90.61829341823422
_cell_angle_beta     100.89147083563849
_cell_angle_gamma    95.67743335957739

_space_group_name_H-M_alt    "P 1"
_space_group_IT_number       1

loop_
  _space_group_symop_operation_xyz
  'x, y, z'

loop_
  _atom_site_type_symbol
  _atom_site_label
  _atom_site_symmetry_multiplicity
  _atom_site_fract_x
  _atom_site_fract_y
  _atom_site_fract_z
  _atom_site_occupancy
  H   H1        1.0  0.3272843751502378  0.4704868733562558  0.38984545093516326  1.0000
  H   H2        1.0  0.6727156261383219  0.5295131263838335  0.6101545498432652  1.0000
  H   H3        1.0  0.21750599845232596  0.6400451139061473  0.2701561250595855  1.0000
  H   H4        1.0  0.782494000942951  0.35995488681611115  0.7298438749037589  1.0000
  H   H5        1.0  0.78073612673072  0.5763110749976191  0.9657084071604866  1.0000
  H   H6        1.0  0.21926387250944596  0.4236889247072817  0.03429159279919983  1.0000
  H   H7        1.0  0.08805779994483341  0.15696661328180783  0.7516299280709762  1.0000
  H   H8        1.0  0.9119422009925655  0.843033386431963  0.24837007187918345  1.0000
  H   H9        1.0  0.7281768126334649  0.09826499087580498  0.6090361638185425  1.0000
  H   H10       1.0  0.27182318660670113  0.9017350088290956  0.3909638361411439  1.0000
  H   H11       1.0  0.672653258168271  0.9225400848460369  0.5573859795152591  1.0000
  H   H12       1.0  0.32734674292423893  0.07745991588509152  0.44261402043855835  1.0000
  H   H13       1.0  0.5621856931176108  0.7129352445397721  0.749391962602342  1.0000
  H   H14       1.0  0.43781430781978814  0.28706475517399865  0.2506080373478176  1.0000
  H   H15       1.0  0.8775804656278019  0.8329567805913884  0.8917205752149227  1.0000
  H   H16       1.0  0.12241953530959705  0.16704321912238207  0.10827942473523683  1.0000
  H   H17       1.0  0.8512940184999598  0.07109223429997172  0.9530967888545483  1.0000
  H   H18       1.0  0.1487059824374392  0.9289077654137989  0.0469032110956113  1.0000
  H   H19       1.0  0.5042236557353111  0.19089478449755867  0.8754032696402085  1.0000
  H   H20       1.0  0.4957763452020878  0.8091052152162119  0.1245967303099511  1.0000
  C   C1        1.0  0.44555644384666904  0.6837495987316932  0.44554277116795443  1.0000
  C   C2        1.0  0.554443555393497  0.31625040097320767  0.554457228791732  1.0000
  C   C3        1.0  0.47209817858187325  0.5305552186773727  0.4438193426282392  1.0000
  C   C4        1.0  0.5279018206582926  0.4694447810275282  0.5561806573314472  1.0000
  C   C5        1.0  0.9875484470658176  0.61500764827346  0.12932924952704689  1.0000
  C   C6        1.0  0.012451553871581355  0.38499235144031074  0.8706707504231127  1.0000
  C   C7        1.0  0.9044034553836424  0.5254481013729236  0.02512739552166537  1.0000
  C   C8        1.0  0.09559654385652354  0.4745518983319772  0.974872604438021  1.0000
  C   C9        1.0  0.9889642668529774  0.9775735302843446  0.6521825568472274  1.0000
  C   C10       1.0  0.011035732387188482  0.02242646942055612  0.34781744311245893  1.0000
  C   C11       1.0  0.34136806431472577  0.01729180623438538  0.7721928999922592  1.0000
  C   C12       1.0  0.658631936622673  0.9827081934793853  0.22780709995790038  1.0000
  C   C13       1.0  0.3549419661857322  0.8830048855972515  0.7368250628247176  1.0000
  C   C14       1.0  0.6450580330544337  0.11699511410764919  0.26317493713496876  1.0000
  C   C15       1.0  0.5490318394462407  0.8155789415232375  0.7786910971350666  1.0000
  C   C16       1.0  0.4509681597939252  0.18442105818166338  0.22130890282461974  1.0000
  C   C17       1.0  0.7256724933979823  0.8846345813939692  0.8576805423958198  1.0000
  C   C18       1.0  0.27432750619334434  0.11536541833725024  0.1423194583921357  1.0000
  C   C19       1.0  0.7108317241265406  0.01847999165189341  0.8924149666602393  1.0000
  C   C20       1.0  0.28916827526873634  0.9815200090703651  0.10758503330310497  1.0000
  C   C21       1.0  0.5192566449616329  0.08700116132496702  0.8495015024273163  1.0000
  C   C22       1.0  0.480743354278533  0.9129988383799337  0.15049849753237018  1.0000
  N   N1        1.0  0.13541803948954115  0.06691672898508981  0.7220056921316119  1.0000
  N   N2        1.0  0.8645819599057359  0.9330832717371689  0.2779943078317325  1.0000
  N   N3        1.0  0.7840277011697553  0.0036160394496922324  0.5970072578488038  1.0000
  N   N4        1.0  0.2159722980704106  0.9963839602552086  0.4029927421108826  1.0000
  O   O1        1.0  0.562021099385995  0.7555491846801469  0.5248810459311406  1.0000
  O   O2        1.0  0.437978900009282  0.24445081604211166  0.4751189540322038  1.0000
  O   O3        1.0  0.3065942196857522  0.7284160717248731  0.3632331489764  1.0000
  O   O4        1.0  0.6934057814067579  0.27158392900625533  0.6367668509774175  1.0000
  O   O5        1.0  0.8926923462712599  0.7187902918076307  0.14197308656961224  1.0000
  O   O6        1.0  0.10730765296890597  0.2812097078972701  0.8580269133900742  1.0000
  O   O7        1.0  0.15987532720764  0.5714271603142078  0.19944579923951217  1.0000
  O   O8        1.0  0.840124673729759  0.42857283939956287  0.8005542007106474  1.0000
  S   S1        1.0  0.10360076428937849  0.8228737145786577  0.6415332908176554  1.0000
  S   S2        1.0  0.8963992366480205  0.17712628513511308  0.35846670913250406  1.0000
  Br  Br1       1.0  0.7435749699783972  0.5161181418927505  0.37077394301531486  1.0000
  Br  Br2       1.0  0.2564250309590016  0.4838818578210203  0.6292260569348447  1.0000
  Br  Br3       1.0  0.716753517720933  0.3641477831115232  0.06866272172003031  1.0000
  Br  Br4       1.0  0.2832464815192329  0.6358522165933774  0.931337278239656  1.0000
