data_image0
_chemical_formula_structural       H68C60N2O10Cl2
_chemical_formula_sum              "H68 C60 N2 O10 Cl2"
_cell_length_a       10.951845851578582
_cell_length_b       11.128241003888153
_cell_length_c       12.144092839314276
_cell_angle_alpha    76.51409304324226
_cell_angle_beta     85.14961160713943
_cell_angle_gamma    68.05407194574411

_space_group_name_H-M_alt    "P 1"
_space_group_IT_number       1

loop_
  _space_group_symop_operation_xyz
  'x, y, z'

loop_
  _atom_site_type_symbol
  _atom_site_label
  _atom_site_symmetry_multiplicity
  _atom_site_fract_x
  _atom_site_fract_y
  _atom_site_fract_z
  _atom_site_occupancy
  H   H1        1.0  0.9400576712519494  0.5582344784271172  0.6495586224477224  1.0000
  H   H2        1.0  0.059942328702688626  0.4417655207166762  0.35044137740213493  1.0000
  H   H3        1.0  0.3310493724509698  0.48172807772338416  0.8218630309418292  1.0000
  H   H4        1.0  0.6689506271400489  0.5182719223884112  0.17813696891115222  1.0000
  H   H5        1.0  0.40708870553351295  0.46077630539726894  0.5942592134665148  1.0000
  H   H6        1.0  0.5929112940575059  0.5392236947145265  0.4057407863864667  1.0000
  H   H7        1.0  0.9655645365520629  0.9633357473008937  0.6181898467829761  1.0000
  H   H8        1.0  0.034435463953764095  0.036664252804989104  0.3818101530753081  1.0000
  H   H9        1.0  0.4731586078972788  0.5893326922944003  0.6017382732447485  1.0000
  H   H10       1.0  0.5268413926085482  0.41066730781148236  0.3982617266135356  1.0000
  H   H11       1.0  0.2757315017176809  0.2186620194176366  0.5230883543347145  1.0000
  H   H12       1.0  0.7242684987881463  0.7813379806882461  0.4769116455235697  1.0000
  H   H13       1.0  0.1272824786030697  0.3200919741194081  0.5780056554100365  1.0000
  H   H14       1.0  0.8727175219027574  0.6799080259864747  0.4219943444482476  1.0000
  H   H15       1.0  0.8868115423174754  0.7764098846903036  0.643009599232842  1.0000
  H   H16       1.0  0.11318845727354329  0.22359011542149193  0.35699040062013954  1.0000
  H   H17       1.0  0.1475343785742411  0.045631074348601704  0.591550336685189  1.0000
  H   H18       1.0  0.8524656210167779  0.9543689257631937  0.40844966316779246  1.0000
  H   H19       1.0  0.27107955541282314  0.811575132352853  0.37504529571407363  1.0000
  H   H20       1.0  0.728920445093004  0.1884248677530298  0.6249547041442104  1.0000
  H   H21       1.0  0.2749058925451862  0.8587450092445049  0.22510433703705973  1.0000
  H   H22       1.0  0.7250941070458324  0.14125499086729057  0.7748956628159217  1.0000
  H   H23       1.0  0.41448422603407914  0.7323925216479813  0.2995234911392572  1.0000
  H   H24       1.0  0.5855157735569398  0.2676074784638141  0.7004765087137242  1.0000
  H   H25       1.0  0.22793286627508924  0.20572099684351028  0.7570869877463844  1.0000
  H   H26       1.0  0.7720671333159296  0.7942790032682853  0.242913012106597  1.0000
  H   H27       1.0  0.388461897349888  0.16060271903055612  0.6983428332562817  1.0000
  H   H28       1.0  0.611538103155939  0.8393972810753267  0.3016571666020025  1.0000
  H   H29       1.0  0.3876270934566634  0.004077798836617416  0.5718270951803635  1.0000
  H   H30       1.0  0.6123729070491638  0.9959222012692651  0.4281729046779207  1.0000
  H   H31       1.0  0.547465567662998  0.7747386794666465  0.5804077722801758  1.0000
  H   H32       1.0  0.4525344328428291  0.22526132063923612  0.4195922275781083  1.0000
  H   H33       1.0  0.31931218744680984  0.33348109897908174  0.2133670327982948  1.0000
  H   H34       1.0  0.6806878130574704  0.666518900906711  0.7866329679067645  1.0000
  H   H35       1.0  0.31261303999232243  0.4638992291339629  0.015342635328024148  1.0000
  H   H36       1.0  0.6873869595986962  0.5361007709778327  0.9846573645249571  1.0000
  H   H37       1.0  0.36415078433085224  0.11548003376987163  0.8906241261042105  1.0000
  H   H38       1.0  0.635849216174975  0.884519966336011  0.10937587375407366  1.0000
  H   H39       1.0  0.41395271054800875  0.5662940183597708  0.18850214840583457  1.0000
  H   H40       1.0  0.5860472890430101  0.4337059817520246  0.8114978514471468  1.0000
  H   H41       1.0  0.28226510695699136  0.6957204385698937  0.10626417042772057  1.0000
  H   H42       1.0  0.7177348939109078  0.3042795603478971  0.8937358302742147  1.0000
  H   H43       1.0  0.26405570347538776  0.54353795852687  0.1724173305406013  1.0000
  H   H44       1.0  0.7359442973925115  0.45646204039092064  0.8275826701613339  1.0000
  H   H45       1.0  0.3708662152831938  0.9876386166364298  0.08565600446174595  1.0000
  H   H46       1.0  0.629133784307825  0.01236138347536565  0.9143439953912356  1.0000
  H   H47       1.0  0.056756149109476524  0.6615160174343266  0.273301471144959  1.0000
  H   H48       1.0  0.9432438504799953  0.33848398245737876  0.7266985295547976  1.0000
  H   H49       1.0  0.0654485525815804  0.8203492042717946  0.21790629798937666  1.0000
  H   H50       1.0  0.9345514479242465  0.1796507958340882  0.7820937018689075  1.0000
  H   H51       1.0  0.06476985338345173  0.7611439198857944  0.366570760043303  1.0000
  H   H52       1.0  0.9352301471223753  0.23885608022008833  0.633429239814981  1.0000
  H   H53       1.0  0.01903393265649114  0.13646830617184427  0.0035173568464747507  1.0000
  H   H54       1.0  0.9809660678477891  0.8635316937139484  0.9964826438585845  1.0000
  H   H55       1.0  0.03096163512449525  0.13478806891346343  0.14953343277829373  1.0000
  H   H56       1.0  0.9690383644665237  0.865211931198332  0.8504665670746877  1.0000
  H   H57       1.0  0.10072506885137034  0.31459219218692913  0.027211275138757485  1.0000
  H   H58       1.0  0.8992749316529098  0.6854078076988638  0.9727887255663017  1.0000
  H   H59       1.0  0.946150695860344  0.38679256193426154  0.9570222029151139  1.0000
  H   H60       1.0  0.05384930464548326  0.6132074381716212  0.0429777969431703  1.0000
  H   H61       1.0  0.9555034148894906  0.3850420392762333  0.10319693941099724  1.0000
  H   H62       1.0  0.044496585063600234  0.6149579596474699  0.8968030612856354  1.0000
  H   H63       1.0  0.6177159996083303  0.16758828726320799  0.0364555447563853  1.0000
  H   H64       1.0  0.38228400089749676  0.8324117128426748  0.9635444551018988  1.0000
  H   H65       1.0  0.612074034967065  0.2529512344309063  0.14415742706615584  1.0000
  H   H66       1.0  0.38792596462395385  0.7470487656808891  0.8558425727868255  1.0000
  H   H67       1.0  0.6302699336868326  0.08193344263145806  0.18066450107475557  1.0000
  H   H68       1.0  0.36973006681899434  0.9180665574744248  0.8193354987835285  1.0000
  C   C1        1.0  0.2638104879550068  0.7078021168876557  0.6083297112952836  1.0000
  C   C2        1.0  0.7361895125492735  0.29219788299813704  0.3916702894097758  1.0000
  C   C3        1.0  0.17184398661889286  0.8404961028945341  0.6071349300688506  1.0000
  C   C4        1.0  0.8281560129705791  0.1595038969971711  0.3928650706309061  1.0000
  C   C5        1.0  0.2160497534022289  0.602801047959512  0.619051720793138  1.0000
  C   C6        1.0  0.7839502471035982  0.3971989521463708  0.38094827906514606  1.0000
  C   C7        1.0  0.2551291052841387  0.4652451418326339  0.4182447477410068  1.0000
  C   C8        1.0  0.7448708952216884  0.5347548582732489  0.5817552521172773  1.0000
  C   C9        1.0  0.08144234853823681  0.6293040935864167  0.6332310418102133  1.0000
  C   C10       1.0  0.918557651416401  0.3706959055573767  0.36676895803964416  1.0000
  C   C11       1.0  0.32735742595161216  0.3841780236969051  0.8240605985484271  1.0000
  C   C12       1.0  0.6726425736394065  0.6158219764148903  0.17593940130455427  1.0000
  C   C13       1.0  0.3067508278975744  0.4626048877096928  0.614692857820052  1.0000
  C   C14       1.0  0.6932491726082527  0.53739511239619  0.3853071420382321  1.0000
  C   C15       1.0  0.03556094416075553  0.8627898860878785  0.6195097257053609  1.0000
  C   C16       1.0  0.9644390554302633  0.13721011402391686  0.3804902741476206  1.0000
  C   C17       1.0  0.3357065732790832  0.3009941255526281  0.9371926347806924  1.0000
  C   C18       1.0  0.6642934272251969  0.6990058743331646  0.0628073659243669  1.0000
  C   C19       1.0  0.3106044135892503  0.3605268005860092  0.7235922706504543  1.0000
  C   C20       1.0  0.6893955869150299  0.6394731992997834  0.27640773005460506  1.0000
  C   C21       1.0  0.3999852462105215  0.6883657249221603  0.5985727198784219  1.0000
  C   C22       1.0  0.6000147537441164  0.311634274221633  0.40142727997143546  1.0000
  C   C23       1.0  0.23465476050151604  0.291731669305174  0.5762683961471651  1.0000
  C   C24       1.0  0.7653452400027643  0.7082683305806187  0.4237316045578942  1.0000
  C   C25       1.0  0.2503441895150741  0.6720475478357558  0.2859363103427737  1.0000
  C   C26       1.0  0.7496558109907527  0.32795245227012704  0.7140636895155104  1.0000
  C   C27       1.0  0.9913091637177727  0.759839124697462  0.6326706533698564  1.0000
  C   C28       1.0  0.008690836236865061  0.24016087444633144  0.36732934648000104  1.0000
  C   C29       1.0  0.21893929076914137  0.9458939828913158  0.5927566974546605  1.0000
  C   C30       1.0  0.7810607100987578  0.05410601602647496  0.40724330324727476  1.0000
  C   C31       1.0  0.30651656358095053  0.7744284383236931  0.29779706071448664  1.0000
  C   C32       1.0  0.6934834360100683  0.22557156178810248  0.7022029391384946  1.0000
  C   C33       1.0  0.34532912147337363  0.15355109990611998  0.1605449943930632  1.0000
  C   C34       1.0  0.6546708790309067  0.8464488999796725  0.8394550063119961  1.0000
  C   C35       1.0  0.29254649625510526  0.24301170837732436  0.6962629766336998  1.0000
  C   C36       1.0  0.7074535033359135  0.7569882917344712  0.30373702321928153  1.0000
  C   C37       1.0  0.351586446655202  0.9232006955321791  0.581643881367551  1.0000
  C   C38       1.0  0.6484135538506252  0.07679930457370364  0.4183561184907332  1.0000
  C   C39       1.0  0.4425080543805475  0.7928431565171742  0.5858496019586913  1.0000
  C   C40       1.0  0.5574919461252794  0.20715684358870853  0.4141503978995928  1.0000
  C   C41       1.0  0.3295845295631238  0.28716053950796633  0.14165011404564556  1.0000
  C   C42       1.0  0.6704154700278951  0.712839460603829  0.858349885807336  1.0000
  C   C43       1.0  0.3255256019642445  0.35915279919739174  0.03082169465184811  1.0000
  C   C44       1.0  0.6744743985415825  0.640847200908491  0.969178305206436  1.0000
  C   C45       1.0  0.35259873872425407  0.16560631059742192  0.9597337013722734  1.0000
  C   C46       1.0  0.6474012617815731  0.8343936895084608  0.04026629848601084  1.0000
  C   C47       1.0  0.30636752758317526  0.615125930863623  0.18208445171849036  1.0000
  C   C48       1.0  0.6936324720078435  0.38487406924817247  0.8179155481344911  1.0000
  C   C49       1.0  0.3568053781489122  0.09234218111018623  0.07014699452576403  1.0000
  C   C50       1.0  0.6431946214421066  0.9076578190016092  0.9298530053272174  1.0000
  C   C51       1.0  0.1003553429035151  0.7312039330380306  0.28611312150501994  1.0000
  C   C52       1.0  0.899644657602312  0.26879606706785214  0.7138868783532641  1.0000
  C   C53       1.0  0.9817294727313255  0.1948435293875692  0.06897207954146488  1.0000
  C   C54       1.0  0.01827052685969344  0.8051564707242264  0.9310279203115164  1.0000
  C   C55       1.0  0.9963822281515878  0.3281681730956406  0.03732111204687594  1.0000
  C   C56       1.0  0.003617772354239306  0.6718318270102421  0.9626788878114081  1.0000
  C   C57       1.0  0.657295732962527  0.1571200156683927  0.11988508506626702  1.0000
  C   C58       1.0  0.34270426790691927  0.842879983469488  0.880114914788893  1.0000
  C   C59       1.0  0.8042602817452121  0.11482736061604977  0.11298337441778523  1.0000
  C   C60       1.0  0.19573971876061486  0.885172639489833  0.8870166254404989  1.0000
  N   N1        1.0  0.2685023156323629  0.4085728111021332  0.5291014268210587  1.0000
  N   N2        1.0  0.7314976848734643  0.5914271890037495  0.47089857303722543  1.0000
  O   O1        1.0  0.21175458428155036  0.4232028104839782  0.348947980748404  1.0000
  O   O2        1.0  0.7882454162242767  0.5767971896219045  0.6510520191098801  1.0000
  O   O3        1.0  0.2981210895772051  0.5672535925928781  0.390988178524047  1.0000
  O   O4        1.0  0.7018789100138135  0.43274640751891735  0.6090118213289344  1.0000
  O   O5        1.0  0.038933912126940536  0.5271590308691685  0.6473488603949731  1.0000
  O   O6        1.0  0.9610660883773396  0.47284096901662426  0.3526511403100862  1.0000
  O   O7        1.0  0.8407622566211876  0.22132399660807717  0.08350930459076793  1.0000
  O   O8        1.0  0.15923774424825854  0.7786760025298035  0.9164906952643923  1.0000
  O   O9        1.0  0.8817998093655776  0.999451375581063  0.12923857153149249  1.0000
  O   O10       1.0  0.11820019022544126  0.0005486245307326341  0.8707614283214888  1.0000
  Cl  Cl1       1.0  0.3547204365336567  0.061198353842599425  0.298494778615079  1.0000
  Cl  Cl2       1.0  0.6452795630573622  0.9388016462691958  0.7015052212379024  1.0000
