data_image0
_chemical_formula_structural       H84C68N6Cl2I8
_chemical_formula_sum              "H84 C68 N6 Cl2 I8"
_cell_length_a       12.848760916720408
_cell_length_b       14.082440129458806
_cell_length_c       14.163868510918139
_cell_angle_alpha    119.43510783567794
_cell_angle_beta     91.41559360117863
_cell_angle_gamma    115.7899609876089

_space_group_name_H-M_alt    "P 1"
_space_group_IT_number       1

loop_
  _space_group_symop_operation_xyz
  'x, y, z'

loop_
  _atom_site_type_symbol
  _atom_site_label
  _atom_site_symmetry_multiplicity
  _atom_site_fract_x
  _atom_site_fract_y
  _atom_site_fract_z
  _atom_site_occupancy
  H   H1        1.0  0.22643885208679998  0.1525104340780038  0.6460257950856843  1.0000
  H   H2        1.0  0.77356114856475  0.8474895662319775  0.3539742052009595  1.0000
  H   H3        1.0  0.24464560314407294  0.12033935646782254  0.5126789517850621  1.0000
  H   H4        1.0  0.755354397507477  0.8796606438421587  0.48732104850158176  1.0000
  H   H5        1.0  0.26687435216930144  0.9783201754464165  0.6163679324019948  1.0000
  H   H6        1.0  0.7331256482072155  0.021679824334253243  0.38363206703366065  1.0000
  H   H7        1.0  0.2636736150528734  0.9358410576775016  0.47502165200665036  1.0000
  H   H8        1.0  0.7363263855986765  0.06415894263247973  0.5249783482799935  1.0000
  H   H9        1.0  0.06650941251002154  0.8085986006368882  0.49457482191211055  1.0000
  H   H10       1.0  0.9334905869862637  0.19140139888429325  0.5054251783730004  1.0000
  H   H11       1.0  0.0606190472038731  0.9460951906197196  0.5810510689999575  1.0000
  H   H12       1.0  0.9393809526695879  0.05390480969070563  0.4189489312860942  1.0000
  H   H13       1.0  0.05459665650310748  0.9721608783632757  0.4133564239115598  1.0000
  H   H14       1.0  0.9454033438734095  0.02783912141739414  0.5866435755240957  1.0000
  H   H15       1.0  0.9316933663268353  0.8266269329033198  0.38221282608933677  1.0000
  H   H16       1.0  0.06830663394753875  0.17337306661741778  0.6177871741963662  1.0000
  H   H17       1.0  0.055906252332109795  0.8295807176184401  0.3296215377557833  1.0000
  H   H18       1.0  0.9440937475413511  0.1704192826919851  0.6703784625302684  1.0000
  H   H19       1.0  0.44659488170163947  0.13258171266351879  0.7168996402352183  1.0000
  H   H20       1.0  0.5534051178967886  0.867418287117595  0.283100359199845  1.0000
  H   H21       1.0  0.5478922379533527  0.297196074037931  0.7850453015170564  1.0000
  H   H22       1.0  0.45210776269819725  0.7028039262720502  0.21495469876958723  1.0000
  H   H23       1.0  0.29255856142347464  0.16584812777530156  0.8030105536006641  1.0000
  H   H24       1.0  0.7074414380728106  0.8341518717458799  0.19698944668444673  1.0000
  H   H25       1.0  0.3691470911129285  0.3273709167317735  0.8493878945485909  1.0000
  H   H26       1.0  0.6308529091614455  0.6726290827889639  0.150612105737112  1.0000
  H   H27       1.0  0.5411848925331986  0.3764572307352179  0.9823274957384333  1.0000
  H   H28       1.0  0.45881510696308664  0.6235427687859635  0.017672504546677542  1.0000
  H   H29       1.0  0.40220765022427835  0.30908539412637603  0.007510959261384527  1.0000
  H   H30       1.0  0.5977923500500957  0.6909146053943613  0.9924890410243183  1.0000
  H   H31       1.0  0.5147780680462481  0.21108410661671312  0.02283915761675189  1.0000
  H   H32       1.0  0.48522193182721285  0.7889158936937122  0.9771608426692998  1.0000
  H   H33       1.0  0.5386575677168877  0.17195528194614063  0.889549565606696  1.0000
  H   H34       1.0  0.4613424315043643  0.8280447170457292  0.11045043382742648  1.0000
  H   H35       1.0  0.38964857230043626  0.09366541948431428  0.8965260587504498  1.0000
  H   H36       1.0  0.6103514279739378  0.9063345800364232  0.10347394153525313  1.0000
  H   H37       1.0  0.3564670226776254  0.3524851705289408  0.7186178507756552  1.0000
  H   H38       1.0  0.6435329769208026  0.647514829252173  0.2813821486594081  1.0000
  H   H39       1.0  0.3844883560118768  0.3208362047764793  0.5887378435065984  1.0000
  H   H40       1.0  0.6155116446396731  0.6791637955335019  0.41126215678004535  1.0000
  H   H41       1.0  0.6123564664547767  0.44077931886877353  0.6908238989295696  1.0000
  H   H42       1.0  0.38764353341868435  0.5592206814416518  0.3091761013564821  1.0000
  H   H43       1.0  0.5785135969068589  0.4726403670059639  0.8192458659926308  1.0000
  H   H44       1.0  0.42148640346965793  0.5273596327747058  0.18075413344302457  1.0000
  H   H45       1.0  0.479087379770627  0.5845795566344033  0.7976145192838867  1.0000
  H   H46       1.0  0.520912619827801  0.4154204431467105  0.2023854801511767  1.0000
  H   H47       1.0  0.635845577439921  0.6562717266431698  0.8153521151310155  1.0000
  H   H48       1.0  0.36415442321162905  0.3437282736668116  0.18464788515562836  1.0000
  H   H49       1.0  0.5361358167647156  0.6576457986208515  0.6652821287173226  1.0000
  H   H50       1.0  0.46386418361180126  0.3423542011598182  0.3347178707183327  1.0000
  H   H51       1.0  0.4328432420744548  0.49208665301311705  0.5885181121079456  1.0000
  H   H52       1.0  0.5671567577990062  0.5079133472973082  0.41148188817810616  1.0000
  H   H53       1.0  0.5894235706176163  0.5508330518750136  0.6006443522858917  1.0000
  H   H54       1.0  0.41057642925584464  0.44916694843541166  0.3993556480001599  1.0000
  H   H55       1.0  0.5744748586640198  0.2382882147812619  0.6175433686936415  1.0000
  H   H56       1.0  0.4255251409344081  0.7617117849998518  0.3824566307414219  1.0000
  H   H57       1.0  0.4522960447174029  0.07917213688558361  0.5375232963171296  1.0000
  H   H58       1.0  0.5477039551560581  0.9208278634248417  0.4624767039689221  1.0000
  H   H59       1.0  0.5106974758372308  0.28215676880941015  0.4869548769399824  1.0000
  H   H60       1.0  0.4893025240362302  0.7178432315010153  0.5130451233460693  1.0000
  H   H61       1.0  0.37054977570159936  0.13660400264703182  0.4148080037402481  1.0000
  H   H62       1.0  0.6294502241718617  0.8633959976633935  0.5851919965458036  1.0000
  H   H63       1.0  0.6171861100910874  0.15315542948873662  0.4275030475765701  1.0000
  H   H64       1.0  0.3828138905604625  0.8468445708212446  0.5724969527100737  1.0000
  H   H65       1.0  0.47233424656648154  0.014657212004142377  0.34325961009080735  1.0000
  H   H66       1.0  0.5276657538100352  0.9853427877765273  0.656740389344848  1.0000
  H   H67       1.0  0.5901104712296457  0.24075320972851896  0.3180643774486032  1.0000
  H   H68       1.0  0.4098895282666396  0.7592467897926626  0.6819356228365077  1.0000
  H   H69       1.0  0.4434266973828514  0.10338728609218853  0.23322869340956354  1.0000
  H   H70       1.0  0.5565733032686986  0.8966127142177928  0.7667713068770803  1.0000
  H   H71       1.0  0.5749680826329602  0.090310910428712  0.2258498793933546  1.0000
  H   H72       1.0  0.4250319172405008  0.9096890898817133  0.7741501208926971  1.0000
  H   H73       1.0  0.14763349385781047  0.15344011777305616  0.14938447637356184  1.0000
  H   H74       1.0  0.8523665060156506  0.8465598825373691  0.85061552391249  1.0000
  H   H75       1.0  0.13852877158915544  0.3528431793273589  0.24666315512751388  1.0000
  H   H76       1.0  0.8614712280092724  0.6471568204537547  0.7533368443075494  1.0000
  H   H77       1.0  0.15787557350139392  0.46299298261271205  0.45494145009259535  1.0000
  H   H78       1.0  0.8421244259948912  0.5370070169084694  0.5450585501925155  1.0000
  H   H79       1.0  0.13068506891795734  0.5951781808408751  0.6901810152961114  1.0000
  H   H80       1.0  0.8693149309555035  0.40482181946955015  0.30981898498994026  1.0000
  H   H81       1.0  0.12625871217389478  0.6949558894173969  0.8926179518166779  1.0000
  H   H82       1.0  0.8737412876995662  0.3050441108930283  0.1073820484693738  1.0000
  H   H83       1.0  0.13210012413663016  0.9027046114868627  0.9910138030139404  1.0000
  H   H84       1.0  0.8678998757368307  0.09729538882356256  0.008986197272111248  1.0000
  C   C1        1.0  0.27081753123237046  0.1155698617532267  0.5838521476119658  1.0000
  C   C2        1.0  0.7291824687669707  0.8844301372381993  0.41614785182274877  1.0000
  C   C3        1.0  0.2313507674198213  0.9804991695211628  0.5464771801083443  1.0000
  C   C4        1.0  0.7686492318014307  0.019500829470707182  0.4535228193257781  1.0000
  C   C5        1.0  0.0923474991465698  0.9011079560370941  0.5093912110219316  1.0000
  C   C6        1.0  0.9076525015049801  0.09889204427288711  0.49060878926471213  1.0000
  C   C7        1.0  0.03062910092949767  0.882097498054539  0.40324676017266775  1.0000
  C   C8        1.0  0.9693708982917544  0.117902500937331  0.5967532392614547  1.0000
  C   C9        1.0  0.4514128797649324  0.22300003187105405  0.7473997349256704  1.0000
  C   C10       1.0  0.5485871201085286  0.7769999684393711  0.2526002653603814  1.0000
  C   C11       1.0  0.38305526962331393  0.2498276293718137  0.8340310935002296  1.0000
  C   C12       1.0  0.6169447310282359  0.7501723709381674  0.16596890678641404  1.0000
  C   C13       1.0  0.4537101356847195  0.28761181566312016  0.9472909001321052  1.0000
  C   C14       1.0  0.5462898641887415  0.7123881846473051  0.052709100153946566  1.0000
  C   C15       1.0  0.47529611018568874  0.18540965917773086  0.9382681365412952  1.0000
  C   C16       1.0  0.5247038896877722  0.8145903411326944  0.06173186374475648  1.0000
  C   C17       1.0  0.41978360066491044  0.3384428840625437  0.6703894707383705  1.0000
  C   C18       1.0  0.5802163992085506  0.6615571162478816  0.32961052954768116  1.0000
  C   C19       1.0  0.546566210813341  0.45473540735118767  0.7362700947212139  1.0000
  C   C20       1.0  0.45343378906012  0.5452645929592376  0.26372990556483783  1.0000
  C   C21       1.0  0.54724201415172  0.5722351924045478  0.7552289559495075  1.0000
  C   C22       1.0  0.45275798572174086  0.4277648079058774  0.24477104433654429  1.0000
  C   C23       1.0  0.5249706443792691  0.5675840707765295  0.6463710887747605  1.0000
  C   C24       1.0  0.47502935521915884  0.43241592900458414  0.35362891066030283  1.0000
  C   C25       1.0  0.47949757015024935  0.1761435848243636  0.5638331748292  1.0000
  C   C26       1.0  0.5205024305013006  0.8238564154856177  0.43616682545744373  1.0000
  C   C27       1.0  0.4662982285968651  0.18250416452766186  0.46060106444419685  1.0000
  C   C28       1.0  0.5337017710015628  0.8174958352534517  0.5393989349908664  1.0000
  C   C29       1.0  0.5254658866854695  0.11740284713559322  0.3794200703669498  1.0000
  C   C30       1.0  0.4745341131879916  0.8825971531748321  0.6205799299191018  1.0000
  C   C31       1.0  0.5337379028438155  0.13896549208021258  0.28360480052777887  1.0000
  C   C32       1.0  0.4662620978077345  0.8610345082297687  0.7163951997588648  1.0000
  C   C33       1.0  0.1887260570008905  0.9519534219980956  0.21107888402410774  1.0000
  C   C34       1.0  0.8112739428725705  0.048046578312329606  0.7889211162619439  1.0000
  C   C35       1.0  0.1826629007796395  0.04806569413964513  0.2529063463903829  1.0000
  C   C36       1.0  0.8173370990938215  0.9519343061707801  0.7470936538956688  1.0000
  C   C37       1.0  0.17641772256687985  0.1606222356695809  0.3048392009715652  1.0000
  C   C38       1.0  0.8235822773065811  0.8393777646408442  0.6951607993144864  1.0000
  C   C39       1.0  0.15792305335409107  0.2053663459550546  0.2400653497946408  1.0000
  C   C40       1.0  0.842076947297459  0.7946336543549267  0.7599346504920031  1.0000
  C   C41       1.0  0.15248104775367916  0.31574841362522144  0.2944765366890464  1.0000
  C   C42       1.0  0.8475189521197817  0.6842515866852038  0.7055234635970054  1.0000
  C   C43       1.0  0.163502889068016  0.37738910289590066  0.4099620552977439  1.0000
  C   C44       1.0  0.836497111583534  0.6226108974140806  0.5900379449888999  1.0000
  C   C45       1.0  0.18070818867480343  0.32571102547461855  0.4683250614379994  1.0000
  C   C46       1.0  0.8192918111986577  0.6742889748358067  0.5316749388480523  1.0000
  C   C47       1.0  0.1895218409437613  0.3837319937558258  0.5859968210642124  1.0000
  C   C48       1.0  0.8104781585525238  0.6162680057653556  0.4140031792208984  1.0000
  C   C49       1.0  0.19457496986949238  0.4293199179025573  0.6861512142090074  1.0000
  C   C50       1.0  0.8054250297289355  0.5706800818785565  0.3138487852260561  1.0000
  C   C51       1.0  0.1435384348981205  0.6550123062383812  0.4694785308731732  1.0000
  C   C52       1.0  0.8564615657534295  0.34498769407159996  0.5305214694134706  1.0000
  C   C53       1.0  0.14287025369686782  0.6960662344209396  0.5680071169248964  1.0000
  C   C54       1.0  0.8571297459015601  0.3039337653601741  0.43199288251016704  1.0000
  C   C55       1.0  0.14137068938087596  0.7494892452585169  0.6831055509642651  1.0000
  C   C56       1.0  0.8586293104925848  0.2505107550519082  0.3168944493217865  1.0000
  C   C57       1.0  0.13428987966373274  0.68588321109562  0.7365496305085095  1.0000
  C   C58       1.0  0.8657101207127842  0.3141167886850497  0.26345036892714596  1.0000
  C   C59       1.0  0.1317627778911652  0.7415720845664436  0.8486364973597215  1.0000
  C   C60       1.0  0.8682372219822958  0.25842791574398166  0.1513635029263302  1.0000
  C   C61       1.0  0.13509613128702344  0.856789562806671  0.9036993891347731  1.0000
  C   C62       1.0  0.8649038685864376  0.14321043750375434  0.09630061115127862  1.0000
  C   C63       1.0  0.14130111881084026  0.9134354925943173  0.8434989174957614  1.0000
  C   C64       1.0  0.8586988810626207  0.08656450771610788  0.1565010827902902  1.0000
  C   C65       1.0  0.1408059431503059  0.02914685581409864  0.8952032246889658  1.0000
  C   C66       1.0  0.8591940567231551  0.9708531444963265  0.10479677559708579  1.0000
  C   C67       1.0  0.1379403120038547  0.12696844354112494  0.9370887332613342  1.0000
  C   C68       1.0  0.8620596878696063  0.8730315567693003  0.06291126702471748  1.0000
  N   N1        1.0  0.4057174741464508  0.21346909006867174  0.641549642017838  1.0000
  N   N2        1.0  0.5942825265050992  0.7865309102413095  0.3584503582688057  1.0000
  N   N3        1.0  0.18880529830254963  0.2199047188477367  0.41754596918959597  1.0000
  N   N4        1.0  0.8111947019718245  0.7800952806730009  0.582454031096107  1.0000
  N   N5        1.0  0.14612331928744202  0.8621861472083169  0.735351097773725  1.0000
  N   N6        1.0  0.8538766805860191  0.13781385310210845  0.2646489025123268  1.0000
  Cl  Cl1       1.0  0.7850162654567908  0.43412718376403625  0.9064956114994315  1.0000
  Cl  Cl2       1.0  0.21498373414163707  0.5658728160170774  0.09350438793563172  1.0000
  I   I1        1.0  0.19808048953433555  0.7952879555234027  0.15560811163324545  1.0000
  I   I2        1.0  0.8019195111172145  0.2047120447865787  0.8443918886533983  1.0000
  I   I3        1.0  0.1993775542480801  0.4882888109356915  0.8478906967709152  1.0000
  I   I4        1.0  0.8006224464034698  0.5117111893742898  0.15210930351572868  1.0000
  I   I5        1.0  0.15818391681660582  0.6092814201629727  0.3140042295164864  1.0000
  I   I6        1.0  0.8418160838349442  0.39071858014700855  0.6859957707701574  1.0000
  I   I7        1.0  0.1505317693569392  0.2950771062584717  0.9996015015596438  1.0000
  I   I8        1.0  0.8494682312946107  0.7049228940515095  0.0003984987270000476  1.0000
