data_image0
_chemical_formula_structural       H80C72O24
_chemical_formula_sum              "H80 C72 O24"
_cell_length_a       5.533930968174329
_cell_length_b       18.848074248936317
_cell_length_c       15.398258720992576
_cell_angle_alpha    90.0
_cell_angle_beta     97.25125255859308
_cell_angle_gamma    90.0

_space_group_name_H-M_alt    "P 1"
_space_group_IT_number       1

loop_
  _space_group_symop_operation_xyz
  'x, y, z'

loop_
  _atom_site_type_symbol
  _atom_site_label
  _atom_site_symmetry_multiplicity
  _atom_site_fract_x
  _atom_site_fract_y
  _atom_site_fract_z
  _atom_site_occupancy
  H   H1        1.0  0.34884547121259596  0.4034486144083999  0.7248028065130441  1.0000
  H   H2        1.0  0.15115452998353182  0.9034486141713379  0.7751971938834089  1.0000
  H   H3        1.0  0.651154528286499  0.5965513856480347  0.275197193692476  1.0000
  H   H4        1.0  0.8488454713371649  0.09655138535453828  0.22480280640533667  1.0000
  H   H5        1.0  0.4304297266502847  0.3802289064308224  0.8847109141004386  1.0000
  H   H6        1.0  0.069570274545843  0.8802289067243187  0.6152890862960145  1.0000
  H   H7        1.0  0.5695702728488101  0.6197710936256121  0.11528908610508153  1.0000
  H   H8        1.0  0.9304297267748537  0.11977109333211579  0.3847109139927311  1.0000
  H   H9        1.0  0.8032420523573734  0.4275594696606624  0.9713231442385022  1.0000
  H   H10       1.0  0.6967579468921018  0.9275594694236007  0.5286768557451039  1.0000
  H   H11       1.0  0.19675794714338732  0.572440530395772  0.02867685531766967  1.0000
  H   H12       1.0  0.3032420526069931  0.07244053063283395  0.4713231444604163  1.0000
  H   H13       1.0  0.09777135169260676  0.49974109532869465  0.8971576372274679  1.0000
  H   H14       1.0  0.402228649503521  0.999741095622191  0.6028423631689852  1.0000
  H   H15       1.0  0.90222864962809  0.5002589041971817  0.1028423630612777  1.0000
  H   H16       1.0  0.5977713518171757  0.000258904434243482  0.3971576371197605  1.0000
  H   H17       1.0  0.010961113011828106  0.5244843727500641  0.7374072886964431  1.0000
  H   H18       1.0  0.48903888636436377  0.024484372987125917  0.7625927109674362  1.0000
  H   H19       1.0  0.9890388864889327  0.4755156273063705  0.26259271085972874  1.0000
  H   H20       1.0  0.5109611131347311  0.9755156270693086  0.2374072892380839  1.0000
  H   H21       1.0  0.765911251213032  0.51290815561943  0.6020315709874511  1.0000
  H   H22       1.0  0.7340887480364434  0.012908155325933639  0.897968428996155  1.0000
  H   H23       1.0  0.23408874828606302  0.48709184443700454  0.3979684292180691  1.0000
  H   H24       1.0  0.2659112514626515  0.9870918441999427  0.10203157120936514  1.0000
  H   H25       1.0  0.24960529792691194  0.6147840849392842  0.6310760426979599  1.0000
  H   H26       1.0  0.2503947014492799  0.1147840846457878  0.8689239569659193  1.0000
  H   H27       1.0  0.7503947015738489  0.3852159151171503  0.3689239568582119  1.0000
  H   H28       1.0  0.749605298051481  0.8852159154106467  0.13107604259025257  1.0000
  H   H29       1.0  0.7419409196887274  0.39793199405627727  0.5618425328979011  1.0000
  H   H30       1.0  0.758059079560748  0.8979319938192154  0.9381574670857049  1.0000
  H   H31       1.0  0.25805907981036763  0.6020680060001572  0.43815746730761906  1.0000
  H   H32       1.0  0.24194091993834685  0.10206800623721907  0.061842533119815114  1.0000
  H   H33       1.0  0.4684272223099467  0.24123097139521257  0.6178413750233968  1.0000
  H   H34       1.0  0.03157277706624522  0.7412309711581507  0.8821586246404826  1.0000
  H   H35       1.0  0.5315727771908142  0.758769028661222  0.38215862453277505  1.0000
  H   H36       1.0  0.9684272224328498  0.25876902889828374  0.1178413755650376  1.0000
  H   H37       1.0  0.38570486658830305  0.12724366364035025  0.6881849818955643  1.0000
  H   H38       1.0  0.1142951327862229  0.6272436639338466  0.8118150184176632  1.0000
  H   H39       1.0  0.6142951329107919  0.8727563364160843  0.3118150183099558  1.0000
  H   H40       1.0  0.885704866712872  0.3727563361225879  0.18818498178785692  1.0000
  H   H41       1.0  0.9844768507184463  0.06639225702703395  0.6488303463478744  1.0000
  H   H42       1.0  0.5155231503542969  0.5663922573205302  0.851169653069609  1.0000
  H   H43       1.0  0.015523148782314613  0.9336077430294006  0.3511696532082976  1.0000
  H   H44       1.0  0.4844768509680658  0.43360774273590424  0.14883034656978836  1.0000
  H   H45       1.0  0.6697409120541189  0.12235255865092659  0.5408757223819473  1.0000
  H   H46       1.0  0.8302590871953563  0.6223525584138647  0.9591242776016589  1.0000
  H   H47       1.0  0.330259087444976  0.877647441405508  0.459124277823573  1.0000
  H   H48       1.0  0.1697409123037385  0.37764744164256975  0.040875722603861186  1.0000
  H   H49       1.0  0.7492825736503309  0.23784977928198667  0.4734923487800863  1.0000
  H   H50       1.0  0.7507174259733329  0.7378497790449248  0.026507651317726397  1.0000
  H   H51       1.0  0.25071742584876394  0.7621502207744478  0.5265076514254339  1.0000
  H   H52       1.0  0.249282573525762  0.2621502210115097  0.9734923488877938  1.0000
  H   H53       1.0  0.36043086252713374  0.33181390827516205  0.5230704074414704  1.0000
  H   H54       1.0  0.13956913866899404  0.8318139080381002  0.9769295929549826  1.0000
  H   H55       1.0  0.639569138793563  0.6681860917812724  0.47692959284727526  1.0000
  H   H56       1.0  0.8604308626517028  0.16818609201833426  0.023070407333762987  1.0000
  H   H57       1.0  0.3213655593308032  0.30818125413145625  0.2504764523160575  1.0000
  H   H58       1.0  0.17863444041957724  0.8081812544249526  0.24952354746202848  1.0000
  H   H59       1.0  0.6786344401682918  0.6918187459249783  0.7495235478894627  1.0000
  H   H60       1.0  0.8213655590811836  0.1918187456314819  0.7504764520941434  1.0000
  H   H61       1.0  0.1289894864065866  0.23310155573309807  0.2600756370787053  1.0000
  H   H62       1.0  0.37101051334379376  0.7331015560265943  0.23992436269938064  1.0000
  H   H63       1.0  0.8710105130925084  0.7668984443233364  0.7399243631268149  1.0000
  H   H64       1.0  0.628989486156967  0.26689844402984003  0.7600756368567912  1.0000
  H   H65       1.0  0.6901538058781828  0.23303148438349722  0.2918281799003687  1.0000
  H   H66       1.0  0.8098461937471471  0.7330314846769935  0.20817181954809577  1.0000
  H   H67       1.0  0.3098461936225781  0.7669685156729373  0.7081718196558032  1.0000
  H   H68       1.0  0.19015380575361376  0.26696851537944094  0.791828180008076  1.0000
  H   H69       1.0  0.5073145404835857  0.194492068079946  0.20084737943128578  1.0000
  H   H70       1.0  0.99268546096168  0.6944920683734424  0.2991526207497524  1.0000
  H   H71       1.0  0.492685460838777  0.8055079314459302  0.7991526202081116  1.0000
  H   H72       1.0  0.007314540359016669  0.3055079316829921  0.7008473795389932  1.0000
  H   H73       1.0  0.5002137392856515  0.1580313421233522  0.30717118931332077  1.0000
  H   H74       1.0  0.9997862603396782  0.6580313424168486  0.1928288101351437  1.0000
  H   H75       1.0  0.49978626021510925  0.8419686579330823  0.6928288102428511  1.0000
  H   H76       1.0  0.00021373916108260134  0.34196865763958595  0.8071711894210282  1.0000
  H   H77       1.0  0.11488241329956338  0.4159543174784789  0.5434836173700857  1.0000
  H   H78       1.0  0.38511758789656436  0.9159543172414171  0.9565163830263674  1.0000
  H   H79       1.0  0.8851175880211333  0.5840456825779556  0.45651638291866  1.0000
  H   H80       1.0  0.6148824134241324  0.08404568281501745  0.043483617262378205  1.0000
  C   C1        1.0  0.51273181968343  0.42460430409497374  0.7628572548339473  1.0000
  C   C2        1.0  0.9872681813876474  0.9246043038579119  0.7371427452328843  1.0000
  C   C3        1.0  0.48726817981733095  0.5753956959614608  0.23714274472222457  1.0000
  C   C4        1.0  0.012731819933049459  0.07539569619852261  0.26285725505586144  1.0000
  C   C5        1.0  0.5585859303954317  0.41145176465111033  0.8524503427615017  1.0000
  C   C6        1.0  0.9414140706756455  0.9114517644140485  0.6475496573053299  1.0000
  C   C7        1.0  0.4414140709269309  0.5885482354053241  0.14754965687789573  1.0000
  C   C8        1.0  0.05858593064505132  0.08854823564238597  0.3524503429834157  1.0000
  C   C9        1.0  0.7687138517041101  0.43850397928406026  0.9013342250725068  1.0000
  C   C10       1.0  0.731286149366967  0.9385039790469982  0.5986657749943247  1.0000
  C   C11       1.0  0.2312861477966508  0.5614960207723743  0.09866577448366501  1.0000
  C   C12       1.0  0.26871385195372965  0.06149602100943613  0.401334225294421  1.0000
  C   C13       1.0  0.9321781007153451  0.47895778267689376  0.8599872210955284  1.0000
  C   C14       1.0  0.5678218985341302  0.978957782439832  0.6400127788880776  1.0000
  C   C15       1.0  0.06782189878374975  0.5210422173795407  0.1400127791099917  1.0000
  C   C16       1.0  0.4321781009649647  0.021042217616602514  0.3599872213174425  1.0000
  C   C17       1.0  0.8849739172079919  0.49273578336652163  0.7702067223732779  1.0000
  C   C18       1.0  0.6150260820414833  0.9927357836600179  0.7297932776103282  1.0000
  C   C19       1.0  0.11502608229110295  0.5072642166899128  0.22979327783224227  1.0000
  C   C20       1.0  0.3849739174592775  0.007264216396416563  0.2702067219458437  1.0000
  C   C21       1.0  0.675808480199255  0.46548885494204434  0.7211875139079332  1.0000
  C   C22       1.0  0.8241915190502204  0.9654888547049826  0.7788124860756729  1.0000
  C   C23       1.0  0.32419151929983986  0.5345111451143901  0.2788124862975869  1.0000
  C   C24       1.0  0.17580848045054057  0.03451114535145196  0.221187513480499  1.0000
  C   C25       1.0  0.6198210833663408  0.4802275320254964  0.6236175904726456  1.0000
  C   C26       1.0  0.8801789177047363  0.9802275317884347  0.8763824095941859  1.0000
  C   C27       1.0  0.38017891795602193  0.519772468030938  0.3763824091667518  1.0000
  C   C28       1.0  0.11982108179435852  0.019772468267999933  0.12361759061133412  1.0000
  C   C29       1.0  0.3839041197025356  0.5227321417494958  0.6100012073075636  1.0000
  C   C30       1.0  0.11609588149359222  0.02273214198655758  0.8899987930888895  1.0000
  C   C31       1.0  0.6160958816181612  0.47726785830693874  0.389998792981182  1.0000
  C   C32       1.0  0.8839041198271045  0.9772678580698769  0.1100012071998562  1.0000
  C   C33       1.0  0.2928560484958792  0.21505324132669673  0.6014432585162585  1.0000
  C   C34       1.0  0.20714395087864676  0.7150532410896349  0.8985567417969692  1.0000
  C   C35       1.0  0.7071439510032157  0.7849467587297377  0.39855674168926175  1.0000
  C   C36       1.0  0.7928560486204481  0.2849467589667996  0.10144325840855098  1.0000
  C   C37       1.0  0.24656680612961168  0.15048278102788487  0.6403602736483961  1.0000
  C   C38       1.0  0.25343319324491426  0.650482780790823  0.8596397266648316  1.0000
  C   C39       1.0  0.7534331933694833  0.8495172190285496  0.3596397265571241  1.0000
  C   C40       1.0  0.7465668062541807  0.3495172192656114  0.14036027354068856  1.0000
  C   C41       1.0  0.022344539429670723  0.11680157086203329  0.6186963430314831  1.0000
  C   C42       1.0  0.477655461766457  0.6168015711555296  0.88130365736497  1.0000
  C   C43       1.0  0.9776554618910259  0.8831984291944012  0.38130365725726256  1.0000
  C   C44       1.0  0.5223445395542398  0.3831984289009049  0.11869634292377562  1.0000
  C   C45       1.0  0.8447796122030915  0.14839581503441104  0.5583009512924365  1.0000
  C   C46       1.0  0.6552203888679857  0.6483958147973492  0.9416990487743951  1.0000
  C   C47       1.0  0.1552203891176053  0.8516041850220234  0.44169904899630924  1.0000
  C   C48       1.0  0.34477961245437694  0.3516041847285271  0.058300950865002234  1.0000
  C   C49       1.0  0.8899958162827942  0.21343230278430297  0.5200741540824138  1.0000
  C   C50       1.0  0.6100041829666814  0.7134323030777994  0.9799258459011924  1.0000
  C   C51       1.0  0.11000418321630082  0.7865676972721315  0.4799258461231063  1.0000
  C   C52       1.0  0.3899958165340796  0.2865676969786352  0.020074153654979606  1.0000
  C   C53       1.0  0.11550011224771452  0.24704230885883602  0.541473421151948  1.0000
  C   C54       1.0  0.38449988894841325  0.7470423091523324  0.9585265792445051  1.0000
  C   C55       1.0  0.8844998872513803  0.7529576911975985  0.4585265790535722  1.0000
  C   C56       1.0  0.6155001123722834  0.25295769090410214  0.04147342104424051  1.0000
  C   C57       1.0  0.1693823532131793  0.3177836982649843  0.5017368578793279  1.0000
  C   C58       1.0  0.3306176479846144  0.8177836980279224  0.998263141867777  1.0000
  C   C59       1.0  0.8306176462859156  0.6822163017914502  0.49826314232619223  1.0000
  C   C60       1.0  0.6693823533377483  0.18221630202851202  0.0017368577716204724  1.0000
  C   C61       1.0  0.14362330891786426  0.31138228460295947  0.4022254848567947  1.0000
  C   C62       1.0  0.35637669083251616  0.8113822848964558  0.09777451492129127  1.0000
  C   C63       1.0  0.8563766905812307  0.688617715453475  0.5977745153487254  1.0000
  C   C64       1.0  0.6436233086682447  0.1886177151599787  0.9022254846348806  1.0000
  C   C65       1.0  0.3070709982929064  0.25671589606949174  0.2828936564966656  1.0000
  C   C66       1.0  0.19292900145580813  0.7567158958324299  0.2171063439307686  1.0000
  C   C67       1.0  0.6929290030277904  0.7432841039869427  0.7171063437920802  1.0000
  C   C68       1.0  0.8070709980432869  0.24328410422400457  0.7828936562747514  1.0000
  C   C69       1.0  0.5144901037672395  0.20746964800505716  0.27058221483007744  1.0000
  C   C70       1.0  0.9855098958564245  0.7074696477679954  0.22941778526773526  1.0000
  C   C71       1.0  0.4855098957318555  0.7925303520513773  0.7294177853754427  1.0000
  C   C72       1.0  0.01449010364267051  0.2925303522884392  0.7705822149377849  1.0000
  O   O1        1.0  0.5825248253212495  0.4170495365298982  0.573599806984975  1.0000
  O   O2        1.0  0.9174751757498276  0.9170495362928363  0.9264001930818565  1.0000
  O   O3        1.0  0.41747517599944717  0.5829504635265363  0.4264001933037705  1.0000
  O   O4        1.0  0.08252482374926733  0.08295046323304  0.07359980712366368  1.0000
  O   O5        1.0  0.18481532798754333  0.49691469623367807  0.5815002480574551  1.0000
  O   O6        1.0  0.31518467138698264  0.9969146959966162  0.9184997522557723  1.0000
  O   O7        1.0  0.8151846715115516  0.5030853038227565  0.4184997521480649  1.0000
  O   O8        1.0  0.6848153281121123  0.003085304059818301  0.08150024794974776  1.0000
  O   O9        1.0  0.41321214144359586  0.5893355153047991  0.6366631059383369  1.0000
  O   O10       1.0  0.086787857932596  0.08933551501130278  0.8633368937255425  1.0000
  O   O11       1.0  0.586787858055499  0.41066448475163536  0.3633368942671833  1.0000
  O   O12       1.0  0.9132121415681649  0.9106644850451318  0.13666310583062943  1.0000
  O   O13       1.0  0.016681607698503097  0.37204693420579765  0.5280353341540843  1.0000
  O   O14       1.0  0.4833183916776888  0.8720469344992939  0.9719646655097951  1.0000
  O   O15       1.0  0.9833183918005918  0.6279530658506368  0.47196466605143583  1.0000
  O   O16       1.0  0.5166816078230722  0.12795306555714048  0.028035334046376852  1.0000
  O   O17       1.0  0.983934411960029  0.3396460596159459  0.3504844340509533  1.0000
  O   O18       1.0  0.5160655876636351  0.8396460599094423  0.14951556604685937  1.0000
  O   O19       1.0  0.01606558753906608  0.6603539404404886  0.6495155661545668  1.0000
  O   O20       1.0  0.48393441183545993  0.16035394014699222  0.8504844341586608  1.0000
  O   O21       1.0  0.31554474583285974  0.26958599074315265  0.3771169966525025  1.0000
  O   O22       1.0  0.1844552539175207  0.7695859910366489  0.12288300312558344  1.0000
  O   O23       1.0  0.684455255487837  0.7304140093132819  0.6228830036362432  1.0000
  O   O24       1.0  0.8155447455832402  0.23041400901978548  0.8771169964305885  1.0000
