data_image0
_chemical_formula_structural       H64C104O16Br8
_chemical_formula_sum              "H64 C104 O16 Br8"
_cell_length_a       12.025885837260743
_cell_length_b       25.906360387546634
_cell_length_c       6.611666877858292
_cell_angle_alpha    90.0
_cell_angle_beta     90.0
_cell_angle_gamma    90.0

_space_group_name_H-M_alt    "P 1"
_space_group_IT_number       1

loop_
  _space_group_symop_operation_xyz
  'x, y, z'

loop_
  _atom_site_type_symbol
  _atom_site_label
  _atom_site_symmetry_multiplicity
  _atom_site_fract_x
  _atom_site_fract_y
  _atom_site_fract_z
  _atom_site_occupancy
  H   H1        1.0  0.4898710306850778  0.8164042140078842  0.2810805556800818  1.0000
  H   H2        1.0  0.010128969428812227  0.18359578608681693  0.781080555842046  1.0000
  H   H3        1.0  0.9898710307989679  0.6835957859411647  0.7189194446438468  1.0000
  H   H4        1.0  0.5101289695427023  0.3164042137675309  0.21891944448188252  1.0000
  H   H5        1.0  0.3954132148225297  0.8954985410128075  0.4085357172252097  1.0000
  H   H6        1.0  0.1045867852913603  0.10450145869588824  0.908535717387174  1.0000
  H   H7        1.0  0.8954132149364198  0.6045014589362416  0.5914642830987189  1.0000
  H   H8        1.0  0.6045867854052502  0.3954985411584596  0.09146428293675464  1.0000
  H   H9        1.0  0.2256020742849478  0.9392891825011943  0.5099176444128557  1.0000
  H   H10       1.0  0.2743979249974026  0.06071081759350703  0.009917644250891342  1.0000
  H   H11       1.0  0.7256020743988377  0.5607108174478549  0.49008235591107296  1.0000
  H   H12       1.0  0.7743979251112926  0.4392891826468464  0.9900823560730373  1.0000
  H   H13       1.0  0.9182109908100721  0.8536633046543651  0.5717296137013602  1.0000
  H   H14       1.0  0.581789009531598  0.14633669544033612  0.07172961353939597  1.0000
  H   H15       1.0  0.418210990696182  0.646336695294684  0.42827038662256833  1.0000
  H   H16       1.0  0.08178900941770798  0.3536633044140117  0.9282703852720547  1.0000
  H   H17       1.0  0.013801870585344494  0.7743952735886368  0.45720494934844624  1.0000
  H   H18       1.0  0.4861981295285455  0.22560472650606442  0.9572049479979327  1.0000
  H   H19       1.0  0.5138018706992344  0.7256047267464178  0.5427950509754824  1.0000
  H   H20       1.0  0.9861981296424355  0.2743952733482834  0.042795050813518073  1.0000
  H   H21       1.0  0.9886037786226016  0.651629473513963  0.005821530441725464  1.0000
  H   H22       1.0  0.5113962208875289  0.3483705265807383  0.5058215306036897  1.0000
  H   H23       1.0  0.4886037793402511  0.848370526435086  0.9941784698822032  1.0000
  H   H24       1.0  0.011396220773638839  0.15162947327360957  0.4941784697202388  1.0000
  H   H25       1.0  0.02130034190132867  0.5822155951034536  0.2590029445879628  1.0000
  H   H26       1.0  0.47869965738102177  0.4177844046052421  0.759002944749927  1.0000
  H   H27       1.0  0.5213003420152187  0.9177844048455955  0.7409970542234879  1.0000
  H   H28       1.0  0.9786996574949117  0.08221559524910572  0.24099705557400153  1.0000
  H   H29       1.0  0.11037032846990111  0.5525087598519085  0.5699282555537069  1.0000
  H   H30       1.0  0.3896296716439889  0.4474912402427927  0.06992825539174259  1.0000
  H   H31       1.0  0.6103703285837911  0.947491240483146  0.4300717447702217  1.0000
  H   H32       1.0  0.8896296709263394  0.052508759611555114  0.9300717434197081  1.0000
  H   H33       1.0  0.3071926442669008  0.6589147381044582  0.9250604171366252  1.0000
  H   H34       1.0  0.19280735584698924  0.3410852619902431  0.42506041697466096  1.0000
  H   H35       1.0  0.8071926443807909  0.8410852618445909  0.0749395831873034  1.0000
  H   H36       1.0  0.6928073559608792  0.15891473825011032  0.5749395833492676  1.0000
  H   H37       1.0  0.2831629840896325  0.726073769476397  0.6651744380419555  1.0000
  H   H38       1.0  0.21683701602425756  0.27392623061830423  0.16517443787999123  1.0000
  H   H39       1.0  0.7831629842035225  0.7739262304726521  0.3348255622819731  1.0000
  H   H40       1.0  0.7168370161381477  0.22607376923604364  0.8348255624439374  1.0000
  H   H41       1.0  0.012547701021114247  0.8426072672289888  0.03285637555750068  1.0000
  H   H42       1.0  0.48745229909277576  0.15739273286571237  0.532856375719465  1.0000
  H   H43       1.0  0.5125477011350043  0.6573927331060657  0.9671436247664279  1.0000
  H   H44       1.0  0.9874522992066658  0.3426072669886354  0.4671436246044636  1.0000
  H   H45       1.0  0.9630566452007878  0.933740750075731  0.11966032388133226  1.0000
  H   H46       1.0  0.5369433551408821  0.06625924963296467  0.6196603240432965  1.0000
  H   H47       1.0  0.46305664508689787  0.5662592498733181  0.8803396764425964  1.0000
  H   H48       1.0  0.036943355026992114  0.43374075022138314  0.38033967628063203  1.0000
  H   H49       1.0  0.3013346092785987  0.9824065530345307  0.9701766481129545  1.0000
  H   H50       1.0  0.1986653908352913  0.017593447060170506  0.4701766479509901  1.0000
  H   H51       1.0  0.8013346093924887  0.5175934469145183  0.029823350698496308  1.0000
  H   H52       1.0  0.6986653909491812  0.4824065527941773  0.5298233508604606  1.0000
  H   H53       1.0  0.34829862653627847  0.8918326196491236  0.8798257228416702  1.0000
  H   H54       1.0  0.15170137357761157  0.10816738044557768  0.37982572267970577  1.0000
  H   H55       1.0  0.8482986266501685  0.6081673806859311  0.12017427596978059  1.0000
  H   H56       1.0  0.6517013736915015  0.3918326194087702  0.6201742761317449  1.0000
  H   H57       1.0  0.45969927910601505  0.7420748338404699  0.11618146288834605  1.0000
  H   H58       1.0  0.04030072017633538  0.2579251658682258  0.6161814630503103  1.0000
  H   H59       1.0  0.959699279219905  0.7579251661085792  0.8838185374355825  1.0000
  H   H60       1.0  0.5403007202902254  0.24207483398612206  0.3838185372736182  1.0000
  H   H61       1.0  0.13611431225534168  0.7696572664674588  0.9830789375924317  1.0000
  H   H62       1.0  0.3638856878585483  0.23034273362724245  0.4830789374304675  1.0000
  H   H63       1.0  0.6361143123692317  0.7303427334815903  0.016921062731496836  1.0000
  H   H64       1.0  0.8638856879724383  0.2696572662271054  0.5169210628934612  1.0000
  C   C1        1.0  0.22750238502373704  0.7669761935972849  0.33032088130662907  1.0000
  C   C2        1.0  0.27249761509015297  0.23302380649741639  0.8303208814685934  1.0000
  C   C3        1.0  0.727502385137627  0.7330238063517642  0.6696791175048217  1.0000
  C   C4        1.0  0.772497615204043  0.26697619335693146  0.1696791173428573  1.0000
  C   C5        1.0  0.33911614206117613  0.7709780301520576  0.27106336164663797  1.0000
  C   C6        1.0  0.1608838580527139  0.22902196994264365  0.7710633618086024  1.0000
  C   C7        1.0  0.8391161421750661  0.7290219697969914  0.7289366371648127  1.0000
  C   C8        1.0  0.6608838581666039  0.2709780302977097  0.22893663851532634  1.0000
  C   C9        1.0  0.4008159270118215  0.8165819676533641  0.3109314092766156  1.0000
  C   C10       1.0  0.09918407310206852  0.18341803244133714  0.8109314094385799  1.0000
  C   C11       1.0  0.9008159271257116  0.6834180326816904  0.689068591047313  1.0000
  C   C12       1.0  0.5991840732159586  0.31658196741301065  0.18906859088534866  1.0000
  C   C13       1.0  0.3488939889151409  0.8598590819692348  0.38435233760947896  1.0000
  C   C14       1.0  0.1511060111987491  0.14014091812546645  0.8843523377714433  1.0000
  C   C15       1.0  0.8488939890290309  0.6401409179798142  0.6156476627144497  1.0000
  C   C16       1.0  0.6511060113126391  0.35985908211488693  0.11564766255248532  1.0000
  C   C17       1.0  0.1776626428117385  0.9038730743997625  0.49487805124566175  1.0000
  C   C18       1.0  0.32233735647061196  0.09612692530893314  0.9948780514076261  1.0000
  C   C19       1.0  0.6776626429256285  0.5961269255492866  0.505121947565789  1.0000
  C   C20       1.0  0.822337356584502  0.4038730745454147  0.005121947403824695  1.0000
  C   C21       1.0  0.06512270202777742  0.9016904131090943  0.5383076046857488  1.0000
  C   C22       1.0  0.43487729808611264  0.09830958698560702  0.038307604523784435  1.0000
  C   C23       1.0  0.5651227013101279  0.5983095868399548  0.4616923956381799  1.0000
  C   C24       1.0  0.9348772982000025  0.4016904132547464  0.9616923958001441  1.0000
  C   C25       1.0  0.005678779170545962  0.8547985270306483  0.5301957002309717  1.0000
  C   C26       1.0  0.4943212209433441  0.1452014730640529  0.030195700069007465  1.0000
  C   C27       1.0  0.5056787792844359  0.6452014729184007  0.4698043000929568  1.0000
  C   C28       1.0  0.9943212210572341  0.35479852717630056  0.9698043002549211  1.0000
  C   C29       1.0  0.05939042742174289  0.8106831710754605  0.4665491194558205  1.0000
  C   C30       1.0  0.4406095726921471  0.18931682901924082  0.9665491196177848  1.0000
  C   C31       1.0  0.559390427535633  0.6893168292595943  0.5334508808681081  1.0000
  C   C32       1.0  0.9406095728060372  0.310683170835107  0.033450880706143805  1.0000
  C   C33       1.0  0.1734776072408816  0.8112958001658683  0.40988138242044136  1.0000
  C   C34       1.0  0.3265223928730084  0.18870419954282744  0.9098813825824057  1.0000
  C   C35       1.0  0.673477606523232  0.6887041997831809  0.5901186179034872  1.0000
  C   C36       1.0  0.8265223929868984  0.31129580031152043  0.09011861774152297  1.0000
  C   C37       1.0  0.23340236369974965  0.8589138476856968  0.42993236236983395  1.0000
  C   C38       1.0  0.2665976364141404  0.14108615240900443  0.9299323610193204  1.0000
  C   C39       1.0  0.7334023629821  0.6410861522633523  0.5700676379540947  1.0000
  C   C40       1.0  0.7665976365280304  0.358913847831349  0.07006763779213034  1.0000
  C   C41       1.0  0.1683442041107167  0.7169208195269327  0.3115618932494183  1.0000
  C   C42       1.0  0.3316557960031733  0.2830791801817629  0.8115618934113826  1.0000
  C   C43       1.0  0.6683442042246066  0.7830791804221163  0.6884381070745103  1.0000
  C   C44       1.0  0.8316557952855237  0.2169208196725849  0.188438106912546  1.0000
  C   C45       1.0  0.09810189752048455  0.7063450645423883  0.14974276204319376  1.0000
  C   C46       1.0  0.4018981025934054  0.2936549355523129  0.649742762205158  1.0000
  C   C47       1.0  0.5981018976343746  0.7936549354066608  0.8502572382807349  1.0000
  C   C48       1.0  0.9018981018757558  0.2063450643020349  0.3502572381187706  1.0000
  C   C49       1.0  0.043384285952845915  0.6580256479483947  0.13413350466429955  1.0000
  C   C50       1.0  0.45661571416104413  0.34197435214630656  0.6341335048262638  1.0000
  C   C51       1.0  0.5433842860667359  0.8419743520006544  0.865866495659629  1.0000
  C   C52       1.0  0.9566157142749342  0.15802564770804126  0.36586649549766476  1.0000
  C   C53       1.0  0.06110075049301903  0.6198745995103011  0.2742030449343  1.0000
  C   C54       1.0  0.43889924962087096  0.38012540058440014  0.7742030450962643  1.0000
  C   C55       1.0  0.5611007506069091  0.8801254004387479  0.7257969553896286  1.0000
  C   C56       1.0  0.938899249734761  0.1198745992699477  0.22579695522766433  1.0000
  C   C57       1.0  0.14951320628947157  0.5901264543262148  0.5904884958851184  1.0000
  C   C58       1.0  0.35048679382441844  0.40987354538248083  0.09048849572315415  1.0000
  C   C59       1.0  0.6495132064033615  0.9098735456228343  0.4095115044388101  1.0000
  C   C60       1.0  0.8504867939383085  0.09012645447186698  0.9095115046007745  1.0000
  C   C61       1.0  0.2140795218613533  0.6010188693848599  0.7573609442982169  1.0000
  C   C62       1.0  0.28592047825253675  0.3989811307098413  0.25736094413625266  1.0000
  C   C63       1.0  0.7140795219752433  0.8989811305641892  0.24263905602571162  1.0000
  C   C64       1.0  0.7859204783664266  0.10101886914450649  0.7426390561876759  1.0000
  C   C65       1.0  0.26152105321468555  0.650258622515647  0.786993849830122  1.0000
  C   C66       1.0  0.2384789460676649  0.34974137757905416  0.2869938511806356  1.0000
  C   C67       1.0  0.7615210533285756  0.8497413774334021  0.21300614898132875  1.0000
  C   C68       1.0  0.738478946181555  0.15025862266129925  0.713006149143293  1.0000
  C   C69       1.0  0.24702103613821216  0.6879208809496423  0.6415234793822455  1.0000
  C   C70       1.0  0.2529789639756778  0.3120791191450589  0.14152347922028127  1.0000
  C   C71       1.0  0.7470210362521021  0.8120791189994067  0.358476520941683  1.0000
  C   C72       1.0  0.7529789632580284  0.18792088070928897  0.8584765211036472  1.0000
  C   C73       1.0  0.1837848604176866  0.6783506963968489  0.4639230600489037  1.0000
  C   C74       1.0  0.3162151396962034  0.32164930369785233  0.9639230602108679  1.0000
  C   C75       1.0  0.6837848605315766  0.8216493035522002  0.536076940275025  1.0000
  C   C76       1.0  0.8162151398100934  0.17835069654250105  0.036076940113060604  1.0000
  C   C77       1.0  0.1317045464619821  0.6288113789936628  0.4424376415267268  1.0000
  C   C78       1.0  0.3682954536519079  0.37118862110103845  0.9424376401762132  1.0000
  C   C79       1.0  0.631704546575872  0.8711886209553863  0.5575623587972018  1.0000
  C   C80       1.0  0.8682954537657979  0.12881137875330936  0.057562358635237496  1.0000
  C   C81       1.0  0.18582570550237523  0.860514559610477  0.9590923177385029  1.0000
  C   C82       1.0  0.3141742946115148  0.1394854404842242  0.4590923175765385  1.0000
  C   C83       1.0  0.6858257056162653  0.6394854403385721  0.04090768107294787  1.0000
  C   C84       1.0  0.8141742947254048  0.3605145593701236  0.5409076812349122  1.0000
  C   C85       1.0  0.07344105223945598  0.8736534550364676  0.023568011347007818  1.0000
  C   C86       1.0  0.42655894787443405  0.12634654505823364  0.5235680115089721  1.0000
  C   C87       1.0  0.5734410515218065  0.6263465449125815  0.9764319889769209  1.0000
  C   C88       1.0  0.926558947988324  0.37365345518211973  0.4764319888149565  1.0000
  C   C89       1.0  0.04665043952619024  0.9228637899090124  0.07216656537822422  1.0000
  C   C90       1.0  0.45334955975616015  0.07713621018568881  0.5721665655401885  1.0000
  C   C91       1.0  0.5466504396400803  0.5771362100400366  0.9278334349457044  1.0000
  C   C92       1.0  0.9533495598700502  0.4228637900546646  0.4278334347837401  1.0000
  C   C93       1.0  0.12865808980209206  0.9649931212266085  0.05831069488559661  1.0000
  C   C94       1.0  0.371341910311798  0.0350068788680927  0.5583106950475609  1.0000
  C   C95       1.0  0.6286580899159822  0.5350068787224406  0.9416893054383321  1.0000
  C   C96       1.0  0.871341910425688  0.46499312098625517  0.44168930527636774  1.0000
  C   C97       1.0  0.24048095659111454  0.9515442714156762  0.9864499936985162  1.0000
  C   C98       1.0  0.25951904352277544  0.04845572867902497  0.48644999353655183  1.0000
  C   C99       1.0  0.7404809567050046  0.5484557285333728  0.013550006625412465  1.0000
  C   C100      1.0  0.7595190436366656  0.4515442715613285  0.5135500067873767  1.0000
  C   C101      1.0  0.26679137765129574  0.9024609072928158  0.9380163254699483  1.0000
  C   C102      1.0  0.23320862246259424  0.09753909280188544  0.4380163253079839  1.0000
  C   C103      1.0  0.7667913777651858  0.5975390930422388  0.06198367485398038  1.0000
  C   C104      1.0  0.7332086225764843  0.4024609070524624  0.5619836750159447  1.0000
  O   O1        1.0  0.3876973690831247  0.7305204801789694  0.17734856151431344  1.0000
  O   O2        1.0  0.11230263103076536  0.2694795199157318  0.6773485616762777  1.0000
  O   O3        1.0  0.8876973691970147  0.7694795197700797  0.8226514372971372  1.0000
  O   O4        1.0  0.6123026311446554  0.23052047993861596  0.3226514386476509  1.0000
  O   O5        1.0  0.0784109530691161  0.740837741114183  0.997328498518665  1.0000
  O   O6        1.0  0.42158904704477396  0.2591622589805182  0.49732849835670073  1.0000
  O   O7        1.0  0.5784109531830061  0.7591622588348661  0.002671501805263604  1.0000
  O   O8        1.0  0.921589047158664  0.2408377408738296  0.5026715019672279  1.0000
  O   O9        1.0  0.2153274698464822  0.8148146356424186  0.9221249637390869  1.0000
  O   O10       1.0  0.28467253026740785  0.1851853644522826  0.4221249635771227  1.0000
  O   O11       1.0  0.7153274699603722  0.6851853643066305  0.07787503658484161  1.0000
  O   O12       1.0  0.7846725303812978  0.3148146357880709  0.577875035234328  1.0000
  O   O13       1.0  0.10375668012197063  0.01039322683588663  0.1026590317599101  1.0000
  O   O14       1.0  0.3962433191603798  0.9896067732588146  0.6026590319218744  1.0000
  O   O15       1.0  0.6037566802358606  0.4896067734044668  0.8973409670515406  1.0000
  O   O16       1.0  0.8962433192742698  0.5103932266902345  0.3973409684020542  1.0000
  Br  Br1       1.0  0.985619380592745  0.9628285782664575  0.6025756127160691  1.0000
  Br  Br2       1.0  0.5143806197489249  0.03717142182824374  0.10257561255410481  1.0000
  Br  Br3       1.0  0.4856193804788551  0.5371714216825916  0.3974243876078595  1.0000
  Br  Br4       1.0  0.014380619635034904  0.4628285780261041  0.8974243877698238  1.0000
  Br  Br5       1.0  0.23931248715857908  0.5486528171989985  0.9553998207553656  1.0000
  Br  Br6       1.0  0.2606875129553109  0.45134718289570275  0.45539982059340134  1.0000
  Br  Br7       1.0  0.7393124872724691  0.9513471831360562  0.044600179568562985  1.0000
  Br  Br8       1.0  0.7606875130692008  0.04865281695864508  0.5446001797305272  1.0000
