data_image0
_chemical_formula_structural       H22C62N4O8S4Cl20
_chemical_formula_sum              "H22 C62 N4 O8 S4 Cl20"
_cell_length_a       9.670129128039687
_cell_length_b       13.667136872938618
_cell_length_c       14.025186712228058
_cell_angle_alpha    63.87180950792793
_cell_angle_beta     88.95758874142317
_cell_angle_gamma    78.46410580122098

_space_group_name_H-M_alt    "P 1"
_space_group_IT_number       1

loop_
  _space_group_symop_operation_xyz
  'x, y, z'

loop_
  _atom_site_type_symbol
  _atom_site_label
  _atom_site_symmetry_multiplicity
  _atom_site_fract_x
  _atom_site_fract_y
  _atom_site_fract_z
  _atom_site_occupancy
  H   H1        1.0  0.014927861558758259  0.6061157997657126  0.426874966131652  1.0000
  H   H2        1.0  0.9850721380405256  0.39388420030637156  0.5731250338528696  1.0000
  H   H3        1.0  0.9533158769406144  0.05677140348488152  0.19517907783302363  1.0000
  H   H4        1.0  0.04668412369224353  0.9432285965877771  0.8048209221616058  1.0000
  H   H5        1.0  0.7332870348986833  0.08426539561484697  0.2831687557784252  1.0000
  H   H6        1.0  0.2667129659520437  0.9157346037137939  0.7168312442103992  1.0000
  H   H7        1.0  0.7823633735481439  0.7281527411646803  0.46966351638446296  1.0000
  H   H8        1.0  0.21763662605113993  0.27184725890740385  0.5303364836000587  1.0000
  H   H9        1.0  0.6381883860011975  0.7495425826285005  0.1663675718118202  1.0000
  H   H10       1.0  0.3618116135980862  0.2504574174435838  0.8336324281727014  1.0000
  H   H11       1.0  0.6877418780137684  0.1840021736747577  0.0072366566878647185  1.0000
  H   H12       1.0  0.3122581218033847  0.8159978256533086  0.9927633432908517  1.0000
  H   H13       1.0  0.45871791351121544  0.23086006596430358  0.07842051417967083  1.0000
  H   H14       1.0  0.5412820860880682  0.7691399341077807  0.9215794858048507  1.0000
  H   H15       1.0  0.414412944800819  0.8878992852844438  0.20917572606892126  1.0000
  H   H16       1.0  0.5855870547984647  0.11210071478764036  0.7908242739156003  1.0000
  H   H17       1.0  0.11995616991274453  0.13948740644269095  0.365521722369672  1.0000
  H   H18       1.0  0.8800438307201133  0.8605125936299677  0.6344782776249573  1.0000
  H   H19       1.0  0.8831239407764488  0.20104910106467228  0.4158177092060787  1.0000
  H   H20       1.0  0.11687605882283483  0.7989508990074118  0.584182290778443  1.0000
  H   H21       1.0  0.2369702038730954  0.9387242420869256  0.44800505714156447  1.0000
  H   H22       1.0  0.7630297957261883  0.06127575798515857  0.5519949428429571  1.0000
  C   C1        1.0  0.3557125275115859  0.6225362259245949  0.2522176506764267  1.0000
  C   C2        1.0  0.6442874720876978  0.3774637741474895  0.747782349308095  1.0000
  C   C3        1.0  0.2500888581661077  0.6002231016567903  0.3285820871514597  1.0000
  C   C4        1.0  0.7499111424667502  0.39977689841586816  0.6714179128431698  1.0000
  C   C5        1.0  0.24845372546913044  0.49512800691448067  0.41941292744575975  1.0000
  C   C6        1.0  0.7515462753815966  0.5048719924141599  0.5805870725430646  1.0000
  C   C7        1.0  0.3859157762797369  0.4165176461023182  0.4704149797083941  1.0000
  C   C8        1.0  0.6140842243531209  0.5834823539703404  0.5295850202862353  1.0000
  C   C9        1.0  0.4961267972771143  0.3845456092467291  0.4212424029237242  1.0000
  C   C10       1.0  0.5038732023221695  0.615454390825355  0.5787575970607974  1.0000
  C   C11       1.0  0.4991707123347214  0.4241148277692113  0.3067886368508396  1.0000
  C   C12       1.0  0.5008292872645623  0.575885172302873  0.6932113631336819  1.0000
  C   C13       1.0  0.43993458792529166  0.5298704558982489  0.23260406042909204  1.0000
  C   C14       1.0  0.5600654127075662  0.4701295441744096  0.7673959395655374  1.0000
  C   C15       1.0  0.14304320636217724  0.6937236048731025  0.3180712700223724  1.0000
  C   C16       1.0  0.8569567932371064  0.30627639519898175  0.6819287299621493  1.0000
  C   C17       1.0  0.9416923951726083  0.7850038851589719  0.360105222092355  1.0000
  C   C18       1.0  0.05830760546024957  0.21499611491368675  0.6398947779022744  1.0000
  C   C19       1.0  0.9920601071414629  0.8763503926302715  0.28432683676129644  1.0000
  C   C20       1.0  0.00793989245782066  0.12364960744181283  0.7156731632232252  1.0000
  C   C21       1.0  0.9177785464407423  0.9853320472087078  0.2556358248486784  1.0000
  C   C22       1.0  0.08222145315854135  0.014667952863376264  0.7443641751358432  1.0000
  C   C23       1.0  0.7940896119018599  0.0006117231540578404  0.30402450136711423  1.0000
  C   C24       1.0  0.20591038769742379  0.9993882769180262  0.6959754986174074  1.0000
  C   C25       1.0  0.7458184503912807  0.9084093227262708  0.379905031451237  1.0000
  C   C26       1.0  0.25418154920800295  0.09159067734581343  0.6200949685332846  1.0000
  C   C27       1.0  0.8183054163333886  0.7993585997643403  0.4099462670045697  1.0000
  C   C28       1.0  0.1816945833384794  0.20064139993034308  0.5900537337765411  1.0000
  C   C29       1.0  0.008583833146170132  0.7365351815913849  0.03851263234579754  1.0000
  C   C30       1.0  0.9914161664531136  0.2634648184806992  0.9614873676387241  1.0000
  C   C31       1.0  0.8866670412184299  0.7217197407780263  0.09993105723144434  1.0000
  C   C32       1.0  0.11333295838085378  0.278280259294058  0.9000689427530773  1.0000
  C   C33       1.0  0.8439038768063155  0.618371397521714  0.16696125065080303  1.0000
  C   C34       1.0  0.15609612301083745  0.3816286018063525  0.8330387493279134  1.0000
  C   C35       1.0  0.9509498920856699  0.5116374058197686  0.21965042983172697  1.0000
  C   C36       1.0  0.049050108547187846  0.48836259425289  0.7803495701629025  1.0000
  C   C37       1.0  0.07368698708825283  0.4774567841575603  0.18203692274217115  1.0000
  C   C38       1.0  0.9263130125110307  0.5225432159145239  0.8179630772423506  1.0000
  C   C39       1.0  0.11708114496682483  0.5348432993004182  0.0750860661011363  1.0000
  C   C40       1.0  0.8829188556660331  0.46515670077224036  0.9249139338934932  1.0000
  C   C41       1.0  0.08556475283713623  0.6476237625567015  0.011659731589033905  1.0000
  C   C42       1.0  0.9144352467621474  0.3523762375153829  0.9883402683954877  1.0000
  C   C43       1.0  0.7971179594911698  0.8226546570903309  0.09164409517713111  1.0000
  C   C44       1.0  0.2028820401081137  0.1773453429817533  0.9083559048073905  1.0000
  C   C45       1.0  0.6019393784126287  0.9275324766024334  0.12523909801462793  1.0000
  C   C46       1.0  0.398060621186655  0.07246752346965075  0.8747609019698936  1.0000
  C   C47       1.0  0.6795104289308995  0.009828693872025191  0.06891892233156564  1.0000
  C   C48       1.0  0.32048957066838407  0.9901713062000591  0.9310810776529559  1.0000
  C   C49       1.0  0.6288631036964265  0.1200528522108478  0.05114506520475911  1.0000
  C   C50       1.0  0.37113689590285714  0.8799471478612365  0.9488549347797626  1.0000
  C   C51       1.0  0.5013444794188123  0.14571593240774194  0.09105805030720941  1.0000
  C   C52       1.0  0.49865552025305565  0.8542840672869414  0.9089419504739015  1.0000
  C   C53       1.0  0.4259820005629024  0.06217206585448059  0.14795194000982195  1.0000
  C   C54       1.0  0.5740180000699554  0.9378279342181778  0.8520480599848076  1.0000
  C   C55       1.0  0.4735718628102053  0.9519832270461362  0.1659238525533182  1.0000
  C   C56       1.0  0.5264281367890784  0.04801677302594804  0.8340761474312033  1.0000
  C   C57       1.0  0.0672330264983523  0.07817781840828697  0.42423673377726395  1.0000
  C   C58       1.0  0.9327669731009314  0.9218221816637974  0.5757632662072576  1.0000
  C   C59       1.0  0.9344218968644721  0.11289474608865754  0.4532531476459166  1.0000
  C   C60       1.0  0.06557810376838577  0.887105253984001  0.5467468523487129  1.0000
  C   C61       1.0  0.13295764383965433  0.9652749622161279  0.4707695105475873  1.0000
  C   C62       1.0  0.8670423557596295  0.034725037855956355  0.5292304894369343  1.0000
  N   N1        1.0  0.028770162096650433  0.6851413933953613  0.37546792556051456  1.0000
  N   N2        1.0  0.9712298375026333  0.31485860667672294  0.6245320744240072  1.0000
  N   N3        1.0  0.6708942758200511  0.8251764123476168  0.13387664611417047  1.0000
  N   N4        1.0  0.32910572377923253  0.1748235877244673  0.8661233538703511  1.0000
  O   O1        1.0  0.36331776634620633  0.7209756616604237  0.19061009258189732  1.0000
  O   O2        1.0  0.6366822342866515  0.2790243384122348  0.8093899074127323  1.0000
  O   O3        1.0  0.1398089441082642  0.4749646418977177  0.4683490994770401  1.0000
  O   O4        1.0  0.8601910554910195  0.5250353581743665  0.5316509005074815  1.0000
  O   O5        1.0  0.04037074993716481  0.8306530332376773  0.994184415909867  1.0000
  O   O6        1.0  0.959629250695693  0.16934696683498138  0.005815584084762466  1.0000
  O   O7        1.0  0.7200332759312739  0.6171387564875698  0.1957860386008294  1.0000
  O   O8        1.0  0.2799667247015841  0.38286124358508866  0.8042139613938001  1.0000
  S   S1        1.0  0.14828310278254014  0.8315252649821113  0.23678544205481536  1.0000
  S   S2        1.0  0.8517168970346128  0.16847473434595503  0.7632145579239011  1.0000
  S   S3        1.0  0.8373957673176676  0.9531481679943618  0.0318493360541172  1.0000
  S   S4        1.0  0.16260423331519014  0.04685183207829674  0.9681506639405123  1.0000
  Cl  Cl1       1.0  0.3949173402691861  0.36594564092133863  0.6061124469757102  1.0000
  Cl  Cl2       1.0  0.6050826593300975  0.6340543591507456  0.39388755300881134  1.0000
  Cl  Cl3       1.0  0.6429027883985865  0.28863786482281545  0.49840719689652285  1.0000
  Cl  Cl4       1.0  0.35709721223427127  0.711362135249843  0.5015928030981067  1.0000
  Cl  Cl5       1.0  0.5875876539987005  0.328570017255519  0.26580411184837766  1.0000
  Cl  Cl6       1.0  0.41241234581845265  0.6714299820725473  0.7341958881303388  1.0000
  Cl  Cl7       1.0  0.46059658047868024  0.5676644452861648  0.10036705376022638  1.0000
  Cl  Cl8       1.0  0.5394034191206034  0.4323355547859196  0.8996329462242951  1.0000
  Cl  Cl9       1.0  0.5916492409678114  0.9310379591631005  0.4387273455847514  1.0000
  Cl  Cl10      1.0  0.40835075863147235  0.06896204090898375  0.5612726543997703  1.0000
  Cl  Cl11      1.0  0.903402166396821  0.4243316477039435  0.34079602750665705  1.0000
  Cl  Cl12      1.0  0.09659783320246247  0.5756683523681407  0.6592039724778646  1.0000
  Cl  Cl13      1.0  0.18279538289737465  0.3511881127642248  0.2632932184401974  1.0000
  Cl  Cl14      1.0  0.817204616701909  0.6488118873078594  0.7367067815443242  1.0000
  Cl  Cl15      1.0  0.21664588767250084  0.45013197956763373  0.02604347588910983  1.0000
  Cl  Cl16      1.0  0.7833541131782263  0.549868019761007  0.9739565240997144  1.0000
  Cl  Cl17      1.0  0.14247082268576008  0.699944674740764  0.8856280678088156  1.0000
  Cl  Cl18      1.0  0.8575291779470978  0.3000553253318944  0.11437193218581392  1.0000
  Cl  Cl19      1.0  0.268282611784849  0.09860924171859424  0.19701429634932255  1.0000
  Cl  Cl20      1.0  0.7317173888480089  0.9013907583540641  0.802985703645307  1.0000
