data_image0
_chemical_formula_structural       H62C60N12O8I2
_chemical_formula_sum              "H62 C60 N12 O8 I2"
_cell_length_a       10.794335975233446
_cell_length_b       11.024605589507782
_cell_length_c       12.586810945502021
_cell_angle_alpha    89.25743609889344
_cell_angle_beta     86.3878462180993
_cell_angle_gamma    67.08518868881521

_space_group_name_H-M_alt    "P 1"
_space_group_IT_number       1

loop_
  _space_group_symop_operation_xyz
  'x, y, z'

loop_
  _atom_site_type_symbol
  _atom_site_label
  _atom_site_symmetry_multiplicity
  _atom_site_fract_x
  _atom_site_fract_y
  _atom_site_fract_z
  _atom_site_occupancy
  H   H1        1.0  0.23443033159364907  0.11839186382046078  0.9685681819802253  1.0000
  H   H2        1.0  0.7655696691558748  0.8816081359146898  0.03143181794135954  1.0000
  H   H3        1.0  0.22600016209898063  0.9665276357654576  0.11113858851466753  1.0000
  H   H4        1.0  0.7739998386505433  0.03347236396969274  0.8888614114069173  1.0000
  H   H5        1.0  0.5423308782820642  0.03256178254608619  0.26164593695969013  1.0000
  H   H6        1.0  0.45766912246745983  0.9674382171890643  0.7383540629618947  1.0000
  H   H7        1.0  0.5485569198900415  0.1859159317044091  0.1206798001322041  1.0000
  H   H8        1.0  0.45144307993703053  0.8140840680221169  0.8793201997830355  1.0000
  H   H9        1.0  0.18276224021506143  0.6967132596093535  0.33644427814828537  1.0000
  H   H10       1.0  0.817237760133008  0.3032867411104926  0.663555721795719  1.0000
  H   H11       1.0  0.2824787026461554  0.6044980405674842  0.43973167713469247  1.0000
  H   H12       1.0  0.7175212981033684  0.39550195916766623  0.5602683227868925  1.0000
  H   H13       1.0  0.3610690336014937  0.6227655353170053  0.31538782617503325  1.0000
  H   H14       1.0  0.6389309658241239  0.3772344653942161  0.684612173762626  1.0000
  H   H15       1.0  0.16138792371618807  0.9571750285991104  0.5285413782976524  1.0000
  H   H16       1.0  0.8386120757094294  0.04282497211211113  0.47145862164000685  1.0000
  H   H17       1.0  0.20142645898837733  0.7943787844623167  0.5764403801466033  1.0000
  H   H18       1.0  0.7985735404372404  0.20562121624890478  0.423559619791056  1.0000
  H   H19       1.0  0.0792614116212179  0.8591505973717013  0.4804216465792669  1.0000
  H   H20       1.0  0.9207385882058542  0.14084940235482477  0.5195783533359728  1.0000
  H   H21       1.0  0.5400498136053992  0.5754278402571298  0.40424801924145076  1.0000
  H   H22       1.0  0.4599501858202186  0.4245721604540915  0.5957519806962085  1.0000
  H   H23       1.0  0.48848621514046636  0.6116115604751963  0.5425980369510733  1.0000
  H   H24       1.0  0.5115137856090577  0.3883884392599541  0.4574019629705115  1.0000
  H   H25       1.0  0.624618650534546  0.6468284363134594  0.4839882779988473  1.0000
  H   H26       1.0  0.375381348831583  0.3531715643823534  0.5160117227345978  1.0000
  H   H27       1.0  0.5309338949633974  0.8701047136470303  0.5423948144603612  1.0000
  H   H28       1.0  0.46906610532518334  0.1298952870574071  0.45760518627942903  1.0000
  H   H29       1.0  0.38896795575028575  0.8523256226033554  0.6092981057037479  1.0000
  H   H30       1.0  0.6110320440767862  0.1476743771231706  0.3907018942114918  1.0000
  H   H31       1.0  0.3650711903933501  0.9805729334311735  0.5158587488898543  1.0000
  H   H32       1.0  0.6349288090322676  0.019427067280048067  0.4841412510478049  1.0000
  H   H33       1.0  0.22059137345985663  0.6657485034881123  0.809584857769192  1.0000
  H   H34       1.0  0.7794086263672154  0.33425149623841377  0.19041514214604774  1.0000
  H   H35       1.0  0.01843899798761476  0.8121078783147688  0.7175212661554438  1.0000
  H   H36       1.0  0.9815610027619092  0.18789212142038186  0.28247873376614124  1.0000
  H   H37       1.0  0.9699870472159265  0.46904736303483824  0.5971136565726494  1.0000
  H   H38       1.0  0.030012952611145467  0.5309526366916879  0.4028863433425904  1.0000
  H   H39       1.0  0.16839386556801272  0.32548084608253514  0.6907273260665471  1.0000
  H   H40       1.0  0.8316061351815113  0.6745191536526154  0.30927267385503776  1.0000
  H   H41       1.0  0.7385026707915548  0.2555919594029479  0.9926047538252832  1.0000
  H   H42       1.0  0.2614973286340628  0.7444080413082735  0.007395246112376006  1.0000
  H   H43       1.0  0.9423908450725638  0.3123575925075758  0.9890904508210414  1.0000
  H   H44       1.0  0.057609154353053846  0.6876424082036455  0.010909549116617765  1.0000
  H   H45       1.0  0.9483609045598054  0.5010027365523431  0.8844147896124581  1.0000
  H   H46       1.0  0.05163909526726665  0.498997263174183  0.11558521030278154  1.0000
  H   H47       1.0  0.7491797857407988  0.6384412581731003  0.7849434164666559  1.0000
  H   H48       1.0  0.2508202150087249  0.36155874156205026  0.215056583454929  1.0000
  H   H49       1.0  0.5467418928189914  0.5833187001935158  0.7893352909823383  1.0000
  H   H50       1.0  0.4532581066066262  0.41668130051770574  0.21066470895532086  1.0000
  H   H51       1.0  0.22376945593500033  0.09223261818063296  0.6752298047665136  1.0000
  H   H52       1.0  0.7762305434906174  0.9077673825305885  0.32477019517114564  1.0000
  H   H53       1.0  0.11298014231198954  0.18259582307283068  0.784939818304613  1.0000
  H   H54       1.0  0.8870198583780458  0.8174041766469111  0.21506018241275787  1.0000
  H   H55       1.0  0.048112615165451685  0.11688094624188455  0.6852904078447648  1.0000
  H   H56       1.0  0.9518873842601658  0.883119054469337  0.31470959209289456  1.0000
  H   H57       1.0  0.0742665665449429  0.8858583055532743  0.9077468174154496  1.0000
  H   H58       1.0  0.9257334332821293  0.11414169417325187  0.0922531824997901  1.0000
  H   H59       1.0  0.9657016084853439  0.04674429906298825  0.8642705182055643  1.0000
  H   H60       1.0  0.034298391341728136  0.9532557006635377  0.1357294817096754  1.0000
  H   H61       1.0  0.09400195801255097  0.030780664046188188  0.950066645928076  1.0000
  H   H62       1.0  0.9059980418145211  0.9692193356803377  0.04993335398716374  1.0000
  C   C1        1.0  0.5129237136792649  0.37709754086291886  0.8870894892275478  1.0000
  C   C2        1.0  0.4870762860883182  0.6229024588481986  0.11291051148347786  1.0000
  C   C3        1.0  0.28956651356508817  0.31871031307136805  0.8914276845622087  1.0000
  C   C4        1.0  0.7104334871844358  0.6812896866637825  0.10857231535937627  1.0000
  C   C5        1.0  0.3894434632784574  0.16582032898601878  0.03580472871487837  1.0000
  C   C6        1.0  0.6105565361471603  0.8341796717252027  0.9641952712227808  1.0000
  C   C7        1.0  0.29987057929723626  0.10129937543128716  0.0335588499107468  1.0000
  C   C8        1.0  0.7001294201283815  0.8987006252799343  0.9664411500269126  1.0000
  C   C9        1.0  0.2954324600241846  0.015812864578076336  0.11409882141881121  1.0000
  C   C10       1.0  0.7045675407253393  0.9841871351570742  0.8859011785027735  1.0000
  C   C11       1.0  0.3811128884419208  0.9900450653752009  0.19837684316642115  1.0000
  C   C12       1.0  0.6188871113256627  0.009954934335916599  0.8016231575446044  1.0000
  C   C13       1.0  0.47364085816094853  0.051510951972403324  0.1982607169768682  1.0000
  C   C14       1.0  0.5263591416661235  0.9484890477541226  0.8017392829383715  1.0000
  C   C15       1.0  0.4776596733418389  0.13827675685440005  0.11877820454703977  1.0000
  C   C16       1.0  0.5223403264852333  0.8617232428721258  0.8812217953681999  1.0000
  C   C17       1.0  0.37213802822816555  0.9057516868397618  0.28527752929023265  1.0000
  C   C18       1.0  0.6278619725213586  0.09424831289538854  0.7147224706313522  1.0000
  C   C19       1.0  0.28453527081253654  0.7984713192594332  0.41760204847853893  1.0000
  C   C20       1.0  0.7154647290145355  0.20152868046709307  0.5823979514367007  1.0000
  C   C21       1.0  0.4291421021144077  0.7833757107474897  0.4448826068564518  1.0000
  C   C22       1.0  0.5708578976531756  0.21662428896362781  0.5551173938545738  1.0000
  C   C23       1.0  0.27826434852773024  0.6724784491140682  0.3742890754903937  1.0000
  C   C24       1.0  0.7217356508978873  0.32752155159715324  0.6257109244472655  1.0000
  C   C25       1.0  0.17524811379909966  0.8568820788150715  0.5061659010860092  1.0000
  C   C26       1.0  0.8247518860279722  0.14311792091145453  0.4938340988292304  1.0000
  C   C27       1.0  0.526229417677368  0.6449069333236459  0.46971541368290676  1.0000
  C   C28       1.0  0.4737705821497041  0.3550930664028801  0.5302845862323329  1.0000
  C   C29       1.0  0.4278012815910089  0.8779166445420984  0.5333402167529868  1.0000
  C   C30       1.0  0.5721987182360632  0.1220833551844275  0.4666597831622529  1.0000
  C   C31       1.0  0.2038023426094628  0.4865696933073351  0.7581280071507008  1.0000
  C   C32       1.0  0.7961976581400612  0.5134303064278154  0.24187199277088398  1.0000
  C   C33       1.0  0.16433374486266966  0.6232308573837291  0.7642926895984867  1.0000
  C   C34       1.0  0.8356662549644024  0.37676914234279696  0.23570731031675296  1.0000
  C   C35       1.0  0.05240516495760758  0.7054014901351903  0.7116382509037065  1.0000
  C   C36       1.0  0.9475948348694645  0.2945985095913358  0.28836174901153316  1.0000
  C   C37       1.0  0.9834986604857714  0.6489078470526143  0.6519589344609797  1.0000
  C   C38       1.0  0.01650134026375252  0.3510921526825363  0.34804106546060515  1.0000
  C   C39       1.0  0.023713872825315303  0.5125077528724616  0.644266669713097  1.0000
  C   C40       1.0  0.9762861279242084  0.487492246862689  0.35573333020848785  1.0000
  C   C41       1.0  0.1343295784150999  0.4314332426004312  0.6976218977412435  1.0000
  C   C42       1.0  0.8656704223344239  0.5685667571347193  0.30237810218034133  1.0000
  C   C43       1.0  0.6309211462362365  0.4140444834306099  0.8893782592874941  1.0000
  C   C44       1.0  0.36907885353134695  0.5859555162805076  0.11062174142353143  1.0000
  C   C45       1.0  0.7422356489030258  0.33887347600550555  0.946888090780161  1.0000
  C   C46       1.0  0.2577643517870094  0.6611265237142364  0.053111909937209795  1.0000
  C   C47       1.0  0.855274731472088  0.37090794223581297  0.9451806406078793  1.0000
  C   C48       1.0  0.1447252692774358  0.6290920574993375  0.0548193593137056  1.0000
  C   C49       1.0  0.8588190095199559  0.4780536479579739  0.8863240489238956  1.0000
  C   C50       1.0  0.14118099030711606  0.5219463517685521  0.11367595099134414  1.0000
  C   C51       1.0  0.7475933323394637  0.5541125760796722  0.8302673595224443  1.0000
  C   C52       1.0  0.25240666748760837  0.44588742364685374  0.16973264039279534  1.0000
  C   C53       1.0  0.6338786771078736  0.5233594643084006  0.8324265069696621  1.0000
  C   C54       1.0  0.36612132271919856  0.47664053541812534  0.16757349294557752  1.0000
  C   C55       1.0  0.13827214843053248  0.09895811242700443  0.7295620133900612  1.0000
  C   C56       1.0  0.8617278513965395  0.9010418872995216  0.27043798652517853  1.0000
  C   C57       1.0  0.16589641419370307  0.9741462979881677  0.7902086480148763  1.0000
  C   C58       1.0  0.834103585633369  0.025853701738358333  0.20979135190036327  1.0000
  C   C59       1.0  0.06844443356525622  0.9834315837482378  0.8833545097282501  1.0000
  C   C60       1.0  0.9315555658603615  0.01656841696298368  0.11664549020940909  1.0000
  N   N1        1.0  0.39649428277720244  0.2555064982920728  0.9563422478433453  1.0000
  N   N2        1.0  0.6035057170498696  0.7444935014344533  0.04365775207189429  1.0000
  N   N3        1.0  0.5069326804491495  0.2884645827116448  0.9572427302828789  1.0000
  N   N4        1.0  0.49306732030037453  0.7115354170235056  0.04275726963870584  1.0000
  N   N5        1.0  0.4246593498404764  0.43573857328508264  0.8128090944272238  1.0000
  N   N6        1.0  0.5753406495851413  0.5642614274261388  0.18719090551043546  1.0000
  N   N7        1.0  0.3148242773970164  0.40338410116106316  0.8167078570003509  1.0000
  N   N8        1.0  0.6851757220286012  0.5966158995501584  0.18329214293730842  1.0000
  N   N9        1.0  0.2583905152840882  0.894794216863591  0.3265223443207162  1.0000
  N   N10       1.0  0.7416094854654356  0.10520578287155966  0.6734776556008687  1.0000
  N   N11       1.0  0.47735989390174877  0.8286100942512187  0.3428074283286798  1.0000
  N   N12       1.0  0.522640106847775  0.1713899054839318  0.657192571592905  1.0000
  O   O1        1.0  0.181543947313824  0.305592434448005  0.8990026533544397  1.0000
  O   O2        1.0  0.8184560521117937  0.6944075662632163  0.10099734658321949  1.0000
  O   O3        1.0  0.13968055708580507  0.9549450519607887  0.29577428143971785  1.0000
  O   O4        1.0  0.8603194427412669  0.04505494776573721  0.7042257184755218  1.0000
  O   O5        1.0  0.6009977486887486  0.808652165767076  0.3216629442560102  1.0000
  O   O6        1.0  0.3990022511383235  0.19134783395945001  0.6783370556592294  1.0000
  O   O7        1.0  0.26166240944454056  0.8699908177722755  0.7666054285829762  1.0000
  O   O8        1.0  0.7383375903825316  0.13000918195425032  0.23339457133226352  1.0000
  I   I1        1.0  0.8188245055100625  0.768344127284279  0.5667913972094216  1.0000
  I   I2        1.0  0.18117549477851816  0.2316558734201583  0.4332086035303688  1.0000
