data_image0
_chemical_formula_structural       H64C72N4O4F16I8
_chemical_formula_sum              "H64 C72 N4 O4 F16 I8"
_cell_length_a       8.630773481052767
_cell_length_b       12.890223351271388
_cell_length_c       18.849426246736293
_cell_angle_alpha    109.92867352760884
_cell_angle_beta     96.33996031525577
_cell_angle_gamma    90.11909473087465

_space_group_name_H-M_alt    "P 1"
_space_group_IT_number       1

loop_
  _space_group_symop_operation_xyz
  'x, y, z'

loop_
  _atom_site_type_symbol
  _atom_site_label
  _atom_site_symmetry_multiplicity
  _atom_site_fract_x
  _atom_site_fract_y
  _atom_site_fract_z
  _atom_site_occupancy
  H   H1        1.0  0.8214827167349312  0.2710611897435198  0.13226222609366348  1.0000
  H   H2        1.0  0.17851728275827544  0.7289388104020046  0.8677377739811529  1.0000
  H   H3        1.0  0.6008375503121235  0.38451042252663553  0.11019847126710888  1.0000
  H   H4        1.0  0.3991624491810833  0.6154895776188888  0.8898015288077075  1.0000
  H   H5        1.0  0.3272176518727001  0.31915646479230336  0.1036130911710728  1.0000
  H   H6        1.0  0.672782347483297  0.6808435350716219  0.8963869083354479  1.0000
  H   H7        1.0  0.2704977050303323  0.13967778940561132  0.12004908106696098  1.0000
  H   H8        1.0  0.7295022944628745  0.8603222107399129  0.8799509190078554  1.0000
  H   H9        1.0  0.9779449455052652  0.037984072800299  0.22437449611533608  1.0000
  H   H10       1.0  0.022055053987941775  0.9620159273452253  0.7756255039594804  1.0000
  H   H11       1.0  0.8524508753936092  0.145766703031748  0.2672438358720327  1.0000
  H   H12       1.0  0.14754912409249182  0.8542332963373254  0.7327561642014299  1.0000
  H   H13       1.0  0.9836323883553226  0.1644640968622927  0.20585629953019088  1.0000
  H   H14       1.0  0.016367611137884007  0.8355359032832317  0.7941437005446255  1.0000
  H   H15       1.0  0.7711226590280311  0.9676727261730149  0.024745986470707408  1.0000
  H   H16       1.0  0.22887734046517574  0.03232727397250948  0.975254013604109  1.0000
  H   H17       1.0  0.9308410171204224  0.9332933317925738  0.08009923809888829  1.0000
  H   H18       1.0  0.06915898223557454  0.06670666807135127  0.9199007614076324  1.0000
  H   H19       1.0  0.9349425716018448  0.06178417300040234  0.06350118104234358  1.0000
  H   H20       1.0  0.06505742905007365  0.9382158271423694  0.9364988190328214  1.0000
  H   H21       1.0  0.47361783038383626  0.059419167066043554  0.263413852196836  1.0000
  H   H22       1.0  0.5263821702680823  0.9405808330767282  0.7365861478783289  1.0000
  H   H23       1.0  0.4286989794679845  0.9144986813282079  0.21978089225948932  1.0000
  H   H24       1.0  0.5713010200252222  0.08550131881731647  0.7802191078153271  1.0000
  H   H25       1.0  0.29958519528582483  0.010665121558548814  0.19972827477943933  1.0000
  H   H26       1.0  0.7004148053660937  0.9893348785842229  0.8002717252957255  1.0000
  H   H27       1.0  0.4495985479584631  0.8205012888288226  0.07679112742732758  1.0000
  H   H28       1.0  0.5504014515347437  0.17949871131670173  0.9232088726474887  1.0000
  H   H29       1.0  0.5013008833443953  0.9010356967980852  0.022094705977354807  1.0000
  H   H30       1.0  0.4986991161488115  0.09896430334743918  0.9779052940974616  1.0000
  H   H31       1.0  0.316415621414374  0.9153773153327713  0.0569658780120368  1.0000
  H   H32       1.0  0.6835843780717269  0.08462268403630178  0.9430341220614256  1.0000
  H   H33       1.0  0.8049070959243428  0.5015708142593414  0.34711048235324066  1.0000
  H   H34       1.0  0.19509290472757568  0.4984291858834304  0.6528895177219243  1.0000
  H   H35       1.0  0.9040092463293136  0.33647486989923076  0.3750217230933071  1.0000
  H   H36       1.0  0.09599075432260493  0.6635251302435411  0.6249782769818578  1.0000
  H   H37       1.0  0.7227313396850142  0.2049656888841154  0.3975423761973376  1.0000
  H   H38       1.0  0.2772686598081925  0.7950343112614089  0.6024576238774787  1.0000
  H   H39       1.0  0.4374798670985906  0.2351523504936441  0.3914891914356509  1.0000
  H   H40       1.0  0.5625201323946163  0.7648476496518803  0.6085108086391654  1.0000
  H   H41       1.0  0.5057415125692467  0.6525362767591126  0.46287846799774834  1.0000
  H   H42       1.0  0.49425848692396  0.34746372338641185  0.5371215320770681  1.0000
  H   H43       1.0  0.4393140789300716  0.728603040435836  0.4026077271512474  1.0000
  H   H44       1.0  0.5606859217218471  0.27139695970693567  0.5973922729239175  1.0000
  H   H45       1.0  0.638409460728377  0.6932852621805004  0.41016985648240184  1.0000
  H   H46       1.0  0.3615905387648298  0.30671473796502413  0.5898301435924146  1.0000
  H   H47       1.0  0.4395850095738593  0.6395510611314269  0.25863651598765236  1.0000
  H   H48       1.0  0.5604149910780593  0.3604489390113449  0.7413634840875125  1.0000
  H   H49       1.0  0.4737909724889931  0.49583098396436787  0.21822697096673427  1.0000
  H   H50       1.0  0.5262090281629255  0.5041690161784039  0.7817730291084306  1.0000
  H   H51       1.0  0.6313954456922475  0.5916367887888755  0.26725560443369206  1.0000
  H   H52       1.0  0.36860455380095924  0.4083632113566488  0.7327443956411243  1.0000
  H   H53       1.0  0.1151328074766712  0.49218916136091895  0.4333011848476079  1.0000
  H   H54       1.0  0.8848671931752473  0.5078108387818527  0.5666988152275569  1.0000
  H   H55       1.0  0.3076594513206802  0.5161131915827322  0.48238427841708836  1.0000
  H   H56       1.0  0.6923405480353169  0.483886808281193  0.5176157210894323  1.0000
  H   H57       1.0  0.21338285723881328  0.3831243465473488  0.4546797673652565  1.0000
  H   H58       1.0  0.7866171432758956  0.6168756533138238  0.5453202321416127  1.0000
  H   H59       1.0  0.23929271162136737  0.3092407411372135  0.24462408750074968  1.0000
  H   H60       1.0  0.7607072877275238  0.6907592579502606  0.7553759120044172  1.0000
  H   H61       1.0  0.073132748564607  0.3637926268776214  0.2913888140187651  1.0000
  H   H62       1.0  0.9268672507913899  0.6362073729863037  0.7086111854877556  1.0000
  H   H63       1.0  0.17925934951704584  0.25938103311517036  0.31510466596564285  1.0000
  H   H64       1.0  0.8207406509976629  0.7406189667460024  0.6848953335412264  1.0000
  C   C1        1.0  0.7932915541936125  0.5073805413343572  0.04027918741708371  1.0000
  C   C2        1.0  0.20670844631399038  0.4926194577503645  0.9597208120884316  1.0000
  C   C3        1.0  0.7161117958231166  0.4594707850677397  0.9670086079885343  1.0000
  C   C4        1.0  0.2838882048288021  0.5405292150750322  0.03299139208663068  1.0000
  C   C5        1.0  0.7469615706577785  0.3533635574222989  0.9207949358249267  1.0000
  C   C6        1.0  0.2530384288354283  0.6466364427232254  0.07920506424988978  1.0000
  C   C7        1.0  0.8568224661897414  0.29354284288825166  0.9485535766939189  1.0000
  C   C8        1.0  0.14317753329635954  0.7064571564808217  0.05144642337954352  1.0000
  C   C9        1.0  0.9321203960277857  0.3399705769951936  0.022164705275824113  1.0000
  C   C10       1.0  0.06787960346542102  0.6600294231503305  0.9778352947989921  1.0000
  C   C11       1.0  0.9022616981158365  0.4463142332838251  0.06859532402616625  1.0000
  C   C12       1.0  0.0977383013773704  0.5536857668616991  0.9314046760486501  1.0000
  C   C13       1.0  0.8872842294071411  0.8559309481781158  0.47430789546262475  1.0000
  C   C14       1.0  0.11271577008606566  0.14406905196740863  0.5256921046121917  1.0000
  C   C15       1.0  0.8898768496358939  0.8704406774395241  0.5511152393997509  1.0000
  C   C16       1.0  0.11012314985731284  0.12955932270600012  0.4488847606750654  1.0000
  C   C17       1.0  0.8061423759583949  0.9519305235325342  0.598803186095596  1.0000
  C   C18       1.0  0.19385762353481198  0.04806947661299008  0.4011968139792203  1.0000
  C   C19       1.0  0.7173722038052146  0.021086770118497165  0.5693858892557521  1.0000
  C   C20       1.0  0.28262779568799223  0.9789132300270272  0.4306141108190643  1.0000
  C   C21       1.0  0.713854464832578  0.0068570325826370895  0.49254855754140464  1.0000
  C   C22       1.0  0.2861455358193406  0.9931429675601348  0.5074514425337603  1.0000
  C   C23       1.0  0.7971908400120941  0.9250701211158824  0.44445268983390346  1.0000
  C   C24       1.0  0.20280915948111275  0.0749298790296419  0.555547310240913  1.0000
  C   C25       1.0  0.7837805529626198  0.05761293969334659  0.14687879534558113  1.0000
  C   C26       1.0  0.216219446393377  0.9423870601705786  0.8531212041609396  1.0000
  C   C27       1.0  0.6688232597643482  0.1407537110697487  0.1365802787639561  1.0000
  C   C28       1.0  0.33117673972885864  0.8592462890757755  0.8634197213108603  1.0000
  C   C29       1.0  0.7012455112829284  0.24192559683625312  0.1288165888036525  1.0000
  C   C30       1.0  0.29875448821027834  0.758074403309271  0.8711834112711638  1.0000
  C   C31       1.0  0.577107653079732  0.3057016923206207  0.11695040110469915  1.0000
  C   C32       1.0  0.4228923464134747  0.6942983078249035  0.8830495989701171  1.0000
  C   C33       1.0  0.422821275162598  0.26897209050397985  0.11344227287631205  1.0000
  C   C34       1.0  0.5771787254893205  0.7310279096387918  0.8865577271988528  1.0000
  C   C35       1.0  0.39084387323899467  0.1679554831323774  0.1222612304020181  1.0000
  C   C36       1.0  0.6091561261170022  0.8320445167315477  0.8777387691045025  1.0000
  C   C37       1.0  0.5149387240010666  0.10417600831041371  0.13374482126519496  1.0000
  C   C38       1.0  0.48506127665085197  0.8958239918323582  0.8662551788099699  1.0000
  C   C39       1.0  0.507463411879557  0.9931299765289792  0.1437779500095358  1.0000
  C   C40       1.0  0.4925365887723615  0.006870023613792569  0.8562220500656291  1.0000
  C   C41       1.0  0.9070292954455047  0.10400220173305603  0.2156861950838983  1.0000
  C   C42       1.0  0.09297070520641385  0.8959977984097157  0.7843138049912666  1.0000
  C   C43       1.0  0.8600393634435783  0.0008242371546698489  0.07397763662694556  1.0000
  C   C44       1.0  0.1399606360496284  0.9991757629908543  0.9260223634478707  1.0000
  C   C45       1.0  0.42280768108939687  0.9943963000218853  0.2112184376273688  1.0000
  C   C46       1.0  0.5771923182666001  0.0056036998420396535  0.7887815618791519  1.0000
  C   C47       1.0  0.4399226553555543  0.9015085553817838  0.07011311345767228  1.0000
  C   C48       1.0  0.5600773441376524  0.0984914447637407  0.9298868866171441  1.0000
  C   C49       1.0  0.481306430075348  0.5564743833156915  0.3413356983530694  1.0000
  C   C50       1.0  0.5186935694178587  0.4435256168298327  0.6586643017217468  1.0000
  C   C51       1.0  0.5652500535381282  0.46103300012858806  0.35471768203447585  1.0000
  C   C52       1.0  0.4347499459550787  0.5389670000169363  0.6452823180403405  1.0000
  C   C53       1.0  0.7246715375804988  0.44349829782785566  0.3567696340126177  1.0000
  C   C54       1.0  0.2753284619127078  0.5565017023176688  0.6432303660621987  1.0000
  C   C55       1.0  0.7798190438023836  0.3507425630595064  0.3722570328131125  1.0000
  C   C56       1.0  0.2201809568495348  0.6492574370832654  0.6277429672620525  1.0000
  C   C57       1.0  0.6775265481882058  0.2763461945164063  0.38501365348162736  1.0000
  C   C58       1.0  0.3224734524637128  0.7236538056263656  0.6149863465935376  1.0000
  C   C59       1.0  0.5174718428125353  0.29365621506224165  0.3821319734885563  1.0000
  C   C60       1.0  0.48252815668067134  0.7063437850832827  0.61786802658626  1.0000
  C   C61       1.0  0.4625100215298695  0.3865376698097549  0.36707618925551483  1.0000
  C   C62       1.0  0.5374899779633373  0.6134623303357695  0.6329238108193016  1.0000
  C   C63       1.0  0.29583729934163827  0.420592686611416  0.3610962157564387  1.0000
  C   C64       1.0  0.7041627013102804  0.5794073135313558  0.6389037843187263  1.0000
  C   C65       1.0  0.5178763802951922  0.6648350472894252  0.4089128680945397  1.0000
  C   C66       1.0  0.4821236191980145  0.335164952856099  0.5910871319802766  1.0000
  C   C67       1.0  0.5073310267990553  0.5717104468452047  0.2664212913390832  1.0000
  C   C68       1.0  0.4926689726941516  0.42828955330031965  0.7335787087357332  1.0000
  C   C69       1.0  0.2289153659744555  0.45559771604284083  0.43774377836582906  1.0000
  C   C70       1.0  0.7710846335187513  0.5444022841026835  0.5622562217089874  1.0000
  C   C71       1.0  0.18986481142076989  0.3328663308983052  0.2988524604592563  1.0000
  C   C72       1.0  0.810135188072437  0.6671336692472192  0.7011475396155601  1.0000
  N   N1        1.0  0.6767308981710389  0.9767993585777699  0.15955791858740595  1.0000
  N   N2        1.0  0.3232691013221677  0.02320064156775435  0.8404420814874104  1.0000
  N   N3        1.0  0.31654751259018954  0.5191538012241103  0.3383853217878088  1.0000
  N   N4        1.0  0.6834524869030172  0.48084619892141406  0.6616146782870076  1.0000
  O   O1        1.0  0.7273288603587318  0.8965478751846153  0.17940735153589285  1.0000
  O   O2        1.0  0.27267113913447505  0.10345212496090918  0.8205926485389236  1.0000
  O   O3        1.0  0.2011274456804872  0.5710184223933822  0.32068444690612913  1.0000
  O   O4        1.0  0.7988725538127196  0.42898157775214224  0.6793155531686874  1.0000
  F   F1        1.0  0.6091088336759116  0.5152833672368043  0.9377303229863648  1.0000
  F   F2        1.0  0.39089116697600684  0.48471663290596734  0.062269677088799984  1.0000
  F   F3        1.0  0.6729649998718147  0.30805072455246796  0.8498407415092584  1.0000
  F   F4        1.0  0.32703500078010384  0.691949275590304  0.15015925856590653  1.0000
  F   F5        1.0  0.8882779987709711  0.19109050261356958  0.9038533993518499  1.0000
  F   F6        1.0  0.11172200187384167  0.8089094967527514  0.09614660072196114  1.0000
  F   F7        1.0  0.03573920977284985  0.2770837234806645  0.04725580268614094  1.0000
  F   F8        1.0  0.9642607897132512  0.7229162758884089  0.9527441973873216  1.0000
  F   F9        1.0  0.9739537510743903  0.8049560462617509  0.5827884110690849  1.0000
  F   F10       1.0  0.02604624841881649  0.1950439538837735  0.4172115890057315  1.0000
  F   F11       1.0  0.8100859173300149  0.9639560658211964  0.672965115384738  1.0000
  F   F12       1.0  0.18991408332190368  0.03604393432157547  0.32703488469042696  1.0000
  F   F13       1.0  0.6359295463787616  0.10001776022084366  0.6152756037185118  1.0000
  F   F14       1.0  0.36407045427315676  0.8999822399219282  0.3847243963566532  1.0000
  F   F15       1.0  0.625211565587619  0.07583179979397814  0.46611485136932335  1.0000
  F   F16       1.0  0.3747884350642994  0.9241682003487937  0.5338851487058416  1.0000
  I   I1        1.0  0.7438874208229829  0.6724749731904679  0.10125672944157742  1.0000
  I   I2        1.0  0.25611257867022397  0.3275250269550562  0.8987432706332389  1.0000
  I   I3        1.0  0.02500733072710968  0.5052198576875243  0.17952794053739085  1.0000
  I   I4        1.0  0.9749926687660971  0.49478014245799995  0.8204720595374255  1.0000
  I   I5        1.0  0.023441286051149285  0.7291245450099335  0.40941211249395165  1.0000
  I   I6        1.0  0.9765587134420576  0.27087545513559075  0.5905878875808647  1.0000
  I   I7        1.0  0.7750315474597282  0.9108394309797635  0.32846756552898987  1.0000
  I   I8        1.0  0.22496845305498045  0.08916056888140916  0.6715324339778794  1.0000
