data_image0
_chemical_formula_structural       H104C120N8O12S4
_chemical_formula_sum              "H104 C120 N8 O12 S4"
_cell_length_a       13.394321084871805
_cell_length_b       7.30023358898514
_cell_length_c       24.25167036200426
_cell_angle_alpha    90.0
_cell_angle_beta     90.76136600646323
_cell_angle_gamma    90.0

_space_group_name_H-M_alt    "P 1"
_space_group_IT_number       1

loop_
  _space_group_symop_operation_xyz
  'x, y, z'

loop_
  _atom_site_type_symbol
  _atom_site_label
  _atom_site_symmetry_multiplicity
  _atom_site_fract_x
  _atom_site_fract_y
  _atom_site_fract_z
  _atom_site_occupancy
  H   H1        1.0  0.3700331567034321  0.9663778307922252  0.3384734271954342  1.0000
  H   H2        1.0  0.6299668431564055  0.4663778300378068  0.16152657285730063  1.0000
  H   H3        1.0  0.6299668429001911  0.03362216934679234  0.6615265729022106  1.0000
  H   H4        1.0  0.3700331571938677  0.5336221701012107  0.8384734272465075  1.0000
  H   H5        1.0  0.3669681997916481  0.9540878418615459  0.44159729449728846  1.0000
  H   H6        1.0  0.6330318000681894  0.4540878411071276  0.05840270555544644  1.0000
  H   H7        1.0  0.6330317998119752  0.04591215827747156  0.5584027056003564  1.0000
  H   H8        1.0  0.3669682002820837  0.5459121590318898  0.9415972945483617  1.0000
  H   H9        1.0  0.5196353800530226  0.8597777925175342  0.49367514395003653  1.0000
  H   H10       1.0  0.48036461980681494  0.35977779313293506  0.006324856102698325  1.0000
  H   H11       1.0  0.48036462029725063  0.14022220762148324  0.5063248561537715  1.0000
  H   H12       1.0  0.5196353797968083  0.6402222070060823  0.9936751439949466  1.0000
  H   H13       1.0  0.6730438642853142  0.7771897584976781  0.4454337762782537  1.0000
  H   H14       1.0  0.32695613557576103  0.2771897591130791  0.05456622336214809  1.0000
  H   H15       1.0  0.3269561353195467  0.2228102416413392  0.5545662234070581  1.0000
  H   H16       1.0  0.67304386477575  0.7228102410259384  0.9454337763293269  1.0000
  H   H17       1.0  0.37957712262318805  0.7996608791817501  0.26406123586368285  1.0000
  H   H18       1.0  0.6204228772366495  0.29966087842733174  0.23593876418905202  1.0000
  H   H19       1.0  0.6204228769804352  0.20033912095726736  0.735938764233962  1.0000
  H   H20       1.0  0.3795771231136236  0.7003391217116857  0.7640612359147562  1.0000
  H   H21       1.0  0.2673275020046227  0.7369904160488572  0.21719843822957408  1.0000
  H   H22       1.0  0.7326724978552148  0.23699041529443882  0.2828015618231608  1.0000
  H   H23       1.0  0.7326724983456505  0.2630095840901603  0.7828015618742339  1.0000
  H   H24       1.0  0.2673275017484084  0.7630095848445786  0.717198438274484  1.0000
  H   H25       1.0  0.12981763745110325  0.6514956435333977  0.15548596398250272  1.0000
  H   H26       1.0  0.8701823624087343  0.15149564414879862  0.3445140360702322  1.0000
  H   H27       1.0  0.87018236289917  0.3485043566056196  0.8445140361213054  1.0000
  H   H28       1.0  0.12981763719488898  0.8485043559902188  0.6554859640274128  1.0000
  H   H29       1.0  0.14984433150343107  0.6632329501490771  0.053019543255251565  1.0000
  H   H30       1.0  0.8501556683564064  0.163232950764478  0.4469804567974833  1.0000
  H   H31       1.0  0.8501556688468421  0.3367670499899403  0.9469804568485566  1.0000
  H   H32       1.0  0.1498443312484545  0.8367670493745394  0.5530195428878285  1.0000
  H   H33       1.0  0.30697028233938445  0.7817173355398527  0.013956187895550625  1.0000
  H   H34       1.0  0.6930297175204531  0.28171733478543437  0.4860438121571843  1.0000
  H   H35       1.0  0.6930297172642387  0.21828266459916473  0.9860438122020942  1.0000
  H   H36       1.0  0.3069702828298201  0.7182826639837638  0.5139561879466239  1.0000
  H   H37       1.0  0.4746155631426853  0.9039947680519943  0.02648991592209116  1.0000
  H   H38       1.0  0.5253844367171522  0.403994767297576  0.4735100841306437  1.0000
  H   H39       1.0  0.5253844364621758  0.0960052320870231  0.9735100837632206  1.0000
  H   H40       1.0  0.47461556363312096  0.5960052328414415  0.5264899159731644  1.0000
  H   H41       1.0  0.618468451879219  0.9920388192683545  0.08683751043827505  1.0000
  H   H42       1.0  0.38153154798061856  0.49203881851393616  0.4131624896144599  1.0000
  H   H43       1.0  0.38153154772440423  0.007961180870663  0.9131624896593699  1.0000
  H   H44       1.0  0.6184684523696546  0.5079611802552622  0.5868375104893483  1.0000
  H   H45       1.0  0.7964738486506178  0.7991710852653752  0.3970166594691602  1.0000
  H   H46       1.0  0.20352615120921977  0.299171084510957  0.10298334058357467  1.0000
  H   H47       1.0  0.2035261509530055  0.20082891487364216  0.6029833406284847  1.0000
  H   H48       1.0  0.7964738491410533  0.7008289156280605  0.8970166595202336  1.0000
  H   H49       1.0  0.9333497111194337  0.8265225155403287  0.42263318370953035  1.0000
  H   H50       1.0  0.06665028874164167  0.3265225147859103  0.07736681593087145  1.0000
  H   H51       1.0  0.06665028923207733  0.17347748459868875  0.5773668159819447  1.0000
  H   H52       1.0  0.9333497108632194  0.673477485353107  0.9226331837544403  1.0000
  H   H53       1.0  0.10780128548195989  0.8421302298156522  0.4536059952984335  1.0000
  H   H54       1.0  0.8921987143778776  0.3421302304310531  0.046394004754301374  1.0000
  H   H55       1.0  0.8921987141216633  0.1578697703233652  0.5463940047992114  1.0000
  H   H56       1.0  0.10780128597239556  0.6578697697079643  0.9536059953495067  1.0000
  H   H57       1.0  0.2439990892352375  0.7129780775581419  0.3958399534690336  1.0000
  H   H58       1.0  0.7560009106246  0.21297807817354278  0.10416004658370132  1.0000
  H   H59       1.0  0.7560009103683857  0.28702192258087555  0.6041600466286113  1.0000
  H   H60       1.0  0.24399908972691095  0.7870219219654746  0.8958399531077738  1.0000
  H   H61       1.0  0.20214037369135135  0.5688157850545257  0.3060769482283499  1.0000
  H   H62       1.0  0.797859626168486  0.06881578566992654  0.19392305182438496  1.0000
  H   H63       1.0  0.7978596266589218  0.4311842150844918  0.6939230518754582  1.0000
  H   H64       1.0  0.20214037343513702  0.9311842144690909  0.8060769482732599  1.0000
  H   H65       1.0  0.08044525079459289  0.48048723335271076  0.23558796104069762  1.0000
  H   H66       1.0  0.9195547490652447  0.980487234107129  0.26441203901203725  1.0000
  H   H67       1.0  0.9195547488090303  0.5195127667863066  0.7644120390569473  1.0000
  H   H68       1.0  0.0804452505383786  0.019512766031888402  0.7355879610856076  1.0000
  H   H69       1.0  0.9081069964042536  0.48192868996800003  0.19740052416774617  1.0000
  H   H70       1.0  0.09189300345682165  0.9819286893525992  0.30259947547265564  1.0000
  H   H71       1.0  0.09189300394725733  0.5180713101710174  0.8025994755237289  1.0000
  H   H72       1.0  0.9081069961480394  0.01807131078641825  0.6974005242126562  1.0000
  H   H73       1.0  0.6865789350429097  0.7142430863948364  0.29375311579828367  1.0000
  H   H74       1.0  0.3134210655635778  0.21424308701023728  0.20624688426061447  1.0000
  H   H75       1.0  0.31342106530736363  0.28575691374418105  0.7062468843055244  1.0000
  H   H76       1.0  0.6865789347866953  0.7857569131287802  0.7937531158431936  1.0000
  H   H77       1.0  0.6044459682570346  0.9346936542271085  0.23308919955285132  1.0000
  H   H78       1.0  0.39555403160280306  0.4346936534726902  0.2669108004998836  1.0000
  H   H79       1.0  0.39555403134658873  0.06530634591190894  0.7669108005447935  1.0000
  H   H80       1.0  0.6044459687474703  0.5653063452965081  0.7330891996039246  1.0000
  H   H81       1.0  0.7008012040897225  0.6942679502265878  0.10513540189804615  1.0000
  H   H82       1.0  0.29919879577011504  0.19426794947216952  0.3948645981546888  1.0000
  H   H83       1.0  0.29919879626055074  0.3057320499124296  0.8948645982057619  1.0000
  H   H84       1.0  0.7008012038335083  0.8057320506668479  0.6051354019429561  1.0000
  H   H85       1.0  0.8017708398535499  0.801085371956295  0.14131345894133232  1.0000
  H   H86       1.0  0.19822916000628768  0.3010853712018768  0.3586865411114026  1.0000
  H   H87       1.0  0.19822916049672334  0.19891462818272238  0.8586865411624757  1.0000
  H   H88       1.0  0.8017708395973356  0.6989146289371406  0.6413134589862423  1.0000
  H   H89       1.0  0.817056484891375  0.5729410599012702  0.1143012756894373  1.0000
  H   H90       1.0  0.1829435157163502  0.07294106051667108  0.3856987239571278  1.0000
  H   H91       1.0  0.18294351546013587  0.4270589402377472  0.8856987240020376  1.0000
  H   H92       1.0  0.8170564846351608  0.9270589396223464  0.6143012757343473  1.0000
  H   H93       1.0  0.9770012113971673  0.661931531518537  0.07049135738664207  1.0000
  H   H94       1.0  0.02299878846267027  0.1619315321339379  0.4295086426660928  1.0000
  H   H95       1.0  0.022998788953105944  0.3380684686204804  0.929508642717166  1.0000
  H   H96       1.0  0.9770012111409531  0.8380684680050796  0.5704913574315521  1.0000
  H   H97       1.0  0.9691153663289184  0.8957356295922368  0.09452106789183204  1.0000
  H   H98       1.0  0.03088463353091927  0.3957356302076378  0.40547893216090286  1.0000
  H   H99       1.0  0.030884634021354936  0.1042643705467805  0.9054789322119762  1.0000
  H   H100      1.0  0.9691153660727041  0.6042643699313796  0.5945210679367421  1.0000
  H   H101      1.0  0.993579810217184  0.84982481921684  0.023179956045158875  1.0000
  H   H102      1.0  0.006420189642653559  0.3498248184624217  0.47682004400757605  1.0000
  H   H103      1.0  0.006420190133089231  0.1501751809221774  0.9768200440586493  1.0000
  H   H104      1.0  0.9935798099609697  0.6501751816765957  0.5231799560900688  1.0000
  C   C1        1.0  0.5214742011521859  0.868761131091652  0.33366703033523565  1.0000
  C   C2        1.0  0.4785257987076517  0.36876113170705277  0.1663329697174992  1.0000
  C   C3        1.0  0.4785257984514374  0.1312388690473655  0.6663329697624092  1.0000
  C   C4        1.0  0.5214742008972093  0.6312388684319646  0.8336670299678125  1.0000
  C   C5        1.0  0.4350290578444821  0.9190796922064978  0.36210648434686804  1.0000
  C   C6        1.0  0.5649709427620054  0.4190796928218987  0.13789351571203007  1.0000
  C   C7        1.0  0.5649709425057912  0.08092030793251957  0.6378935157569401  1.0000
  C   C8        1.0  0.4350290575882678  0.5809203073171187  0.8621064843917781  1.0000
  C   C9        1.0  0.43403276001778307  0.9146185349567985  0.4194922997187174  1.0000
  C   C10       1.0  0.5659672398420544  0.4146185342023802  0.08050770033401745  1.0000
  C   C11       1.0  0.5659672395858402  0.08538146518221894  0.5805077003789274  1.0000
  C   C12       1.0  0.43403275976156874  0.5853814659366372  0.9194922997636273  1.0000
  C   C13       1.0  0.5199522810376976  0.8632279012973413  0.4489407254324051  1.0000
  C   C14       1.0  0.4800477195687898  0.3632279019127421  0.05105927462649305  1.0000
  C   C15       1.0  0.4800477193125756  0.13677209884167618  0.551059274671403  1.0000
  C   C16       1.0  0.5199522807814834  0.6367720982262753  0.9489407254773151  1.0000
  C   C17       1.0  0.6066611234827066  0.8159248313625604  0.4217097069060606  1.0000
  C   C18       1.0  0.3933388771237809  0.31592483197796134  0.07829029315283752  1.0000
  C   C19       1.0  0.39333887686756663  0.18407516877645697  0.5782902931977475  1.0000
  C   C20       1.0  0.6066611232264923  0.6840751681610561  0.9217097069509705  1.0000
  C   C21       1.0  0.6078220328227273  0.8169321826904817  0.3641128861024622  1.0000
  C   C22       1.0  0.3921779677837602  0.31693218330588263  0.13588711395643596  1.0000
  C   C23       1.0  0.39217796752754586  0.18306781607871647  0.635887114001346  1.0000
  C   C24       1.0  0.607822032566513  0.6830678168331348  0.864112886147372  1.0000
  C   C25       1.0  0.4496414888668213  0.8422809126652613  0.2451885997038753  1.0000
  C   C26       1.0  0.5503585109942539  0.3422809132806622  0.2548113999365265  1.0000
  C   C27       1.0  0.5503585114846896  0.15771908747375613  0.7548113999875996  1.0000
  C   C28       1.0  0.4496414886106071  0.6577190868583552  0.7451885997487853  1.0000
  C   C29       1.0  0.4540093142769816  0.8583570407191741  0.18649073852480796  1.0000
  C   C30       1.0  0.5459906855840938  0.3583570413345749  0.31350926111559385  1.0000
  C   C31       1.0  0.5459906853278794  0.1416429594198434  0.8135092611605038  1.0000
  C   C32       1.0  0.4540093147674172  0.6416429588044426  0.6864907385758812  1.0000
  C   C33       1.0  0.36984791744068224  0.8096429282643919  0.15183807572637195  1.0000
  C   C34       1.0  0.6301520824191552  0.3096429288797928  0.348161924326363  1.0000
  C   C35       1.0  0.630152082909591  0.19035707187462556  0.8481619243774362  1.0000
  C   C36       1.0  0.36984791718446797  0.6903570712592247  0.6518380757712819  1.0000
  C   C37       1.0  0.27787814800414007  0.7467936722224652  0.17288943629202908  1.0000
  C   C38       1.0  0.7221218518569352  0.24679367146804695  0.32711056334837274  1.0000
  C   C39       1.0  0.722121851600721  0.2532063279165522  0.8271105633932827  1.0000
  C   C40       1.0  0.27787814849457576  0.7532063286709705  0.6728894363431023  1.0000
  C   C41       1.0  0.19979205210629455  0.698787527524742  0.13797130926267634  1.0000
  C   C42       1.0  0.800207947753543  0.19878752814014292  0.36202869079005856  1.0000
  C   C43       1.0  0.8002079474973287  0.3012124726142754  0.8620286908349685  1.0000
  C   C44       1.0  0.199792052597968  0.8012124719988745  0.6379713089014165  1.0000
  C   C45       1.0  0.20997726599438787  0.7089116186375956  0.08030678110863547  1.0000
  C   C46       1.0  0.7900227338654497  0.20891161788317733  0.41969321894409944  1.0000
  C   C47       1.0  0.7900227343571231  0.29108838150142174  0.9196932185828396  1.0000
  C   C48       1.0  0.20997726573817357  0.7910883822558401  0.5803067811535455  1.0000
  C   C49       1.0  0.29807243737487016  0.7727072128912781  0.05852573500676158  1.0000
  C   C50       1.0  0.7019275632316173  0.272707213506679  0.4414742650521365  1.0000
  C   C51       1.0  0.701927562975403  0.22729278724773933  0.9414742650970466  1.0000
  C   C52       1.0  0.2980724371198937  0.7272927866323384  0.5585257346393385  1.0000
  C   C53       1.0  0.3788349736068408  0.824881987212842  0.09327355002162165  1.0000
  C   C54       1.0  0.6211650262529967  0.32488198782824285  0.40672645003111324  1.0000
  C   C55       1.0  0.6211650259967824  0.17511801292617546  0.9067264500760231  1.0000
  C   C56       1.0  0.37883497335062655  0.6751180123107746  0.5932735500665317  1.0000
  C   C57       1.0  0.469675016886994  0.891105707879732  0.07111047048713762  1.0000
  C   C58       1.0  0.5303249829728435  0.3911057084951329  0.4288895295655973  1.0000
  C   C59       1.0  0.530324982717867  0.10889429088946623  0.9288895291981741  1.0000
  C   C60       1.0  0.4696750173774297  0.6088942916438845  0.5711104705382108  1.0000
  C   C61       1.0  0.5496019831601894  0.9385822599345796  0.10396150224524314  1.0000
  C   C62       1.0  0.45039801669964813  0.4385822605499805  0.39603849780749173  1.0000
  C   C63       1.0  0.45039801719008377  0.06141774020443781  0.8960384978585649  1.0000
  C   C64       1.0  0.5496019829039751  0.561417739589037  0.6039615022901531  1.0000
  C   C65       1.0  0.5432592356772586  0.9211617748980618  0.16194663871408638  1.0000
  C   C66       1.0  0.45674076418257886  0.42116177551346273  0.3380533613386485  1.0000
  C   C67       1.0  0.45674076392636465  0.07883822524095557  0.8380533613835585  1.0000
  C   C68       1.0  0.5432592361689321  0.5788382246255547  0.6619466383528265  1.0000
  C   C69       1.0  0.7842111670329762  0.751935826859358  0.354769302690384  1.0000
  C   C70       1.0  0.21578883282686134  0.25193582747475884  0.14523069736235095  1.0000
  C   C71       1.0  0.21578883257064704  0.24806417327965943  0.6452306974072609  1.0000
  C   C72       1.0  0.7842111675234118  0.7480641726642585  0.8547693027414572  1.0000
  C   C73       1.0  0.8630894646175603  0.6856423933546805  0.3230538078282082  1.0000
  C   C74       1.0  0.1369105352422771  0.1856423939700813  0.1769461922245267  1.0000
  C   C75       1.0  0.13691053498606282  0.314357606784337  0.6769461922694368  1.0000
  C   C76       1.0  0.8630894651079961  0.8143576061689362  0.8230538078792814  1.0000
  C   C77       1.0  0.9645578298898435  0.6902019570445632  0.34467059418367224  1.0000
  C   C78       1.0  0.035442169971231806  0.19020195765996417  0.1553294054567296  1.0000
  C   C79       1.0  0.03544216971501753  0.30979804309445413  0.6553294055016397  1.0000
  C   C80       1.0  0.9645578296336291  0.8097980424790533  0.8446705942285823  1.0000
  C   C81       1.0  0.9908691017611703  0.7698566164348306  0.39612079427008945  1.0000
  C   C82       1.0  0.009130898098667241  0.26985661705023145  0.10387920578264534  1.0000
  C   C83       1.0  0.009130897842452959  0.23014338370418683  0.6038792058275553  1.0000
  C   C84       1.0  0.9908691022516061  0.7301433830887859  0.8961207943211628  1.0000
  C   C85       1.0  0.08955436905709303  0.7770660377990196  0.4142277740009245  1.0000
  C   C86       1.0  0.9104456308027444  0.2770660384144205  0.08577222605181038  1.0000
  C   C87       1.0  0.91044563054653  0.22293396233999777  0.5857722260967203  1.0000
  C   C88       1.0  0.08955436880087876  0.7229339617245969  0.9142277740458344  1.0000
  C   C89       1.0  0.16651619462581219  0.7049747418719858  0.3817855908705525  1.0000
  C   C90       1.0  0.8334838052340253  0.20497474111756753  0.11821440918218233  1.0000
  C   C91       1.0  0.833483804977811  0.2950252582670316  0.6182144092270924  1.0000
  C   C92       1.0  0.16651619436959791  0.7950252590214499  0.8817855909154626  1.0000
  C   C93       1.0  0.14287312831211996  0.6252691594536444  0.3314327957269938  1.0000
  C   C94       1.0  0.8571268715489554  0.12526915869922603  0.16856720391340801  1.0000
  C   C95       1.0  0.857126872039391  0.3747308406853731  0.6685672039644813  1.0000
  C   C96       1.0  0.14287312805590566  0.8747308414397914  0.8314327957719039  1.0000
  C   C97       1.0  0.04309287143983166  0.6161830995089213  0.3121535928064917  1.0000
  C   C98       1.0  0.9569071284200058  0.11618309875450294  0.18784640724624324  1.0000
  C   C99       1.0  0.9569071281637915  0.38381690063009616  0.6878464072911533  1.0000
  C   C100      1.0  0.04309287118361737  0.8838169013845145  0.8121535928514017  1.0000
  C   C101      1.0  0.019544535639593186  0.5393734696299476  0.25919881882677354  1.0000
  C   C102      1.0  0.9804554642202443  0.039373468875529304  0.24080118122596134  1.0000
  C   C103      1.0  0.98045546396403  0.4606265305090698  0.7408011812708712  1.0000
  C   C104      1.0  0.019544536130028854  0.9606265312634881  0.7591988188778468  1.0000
  C   C105      1.0  0.9249872902605553  0.5395674236976827  0.2378594165055846  1.0000
  C   C106      1.0  0.07501270960051998  0.039567422943264395  0.26214058313481714  1.0000
  C   C107      1.0  0.0750127093443057  0.46043257644133473  0.7621405831797271  1.0000
  C   C108      1.0  0.924987290750991  0.960432577195753  0.7378594165566579  1.0000
  C   C109      1.0  0.8421326569980697  0.6145253251579388  0.2679327271670829  1.0000
  C   C110      1.0  0.15786734286176773  0.1145253244035205  0.23206727288565202  1.0000
  C   C111      1.0  0.15786734260555346  0.3854746749810786  0.732067272930562  1.0000
  C   C112      1.0  0.8421326574885054  0.8854746757354969  0.7679327272181562  1.0000
  C   C113      1.0  0.7820947451401236  0.7069607714727202  0.10777461949058327  1.0000
  C   C114      1.0  0.21790525546636402  0.20696077071830193  0.3922253805683149  1.0000
  C   C115      1.0  0.2179052552113875  0.2930392286662972  0.8922253802008917  1.0000
  C   C116      1.0  0.7820947448839093  0.7930392294207155  0.6077746195354932  1.0000
  C   C117      1.0  0.954529784452853  0.8022856828632257  0.059946555569081496  1.0000
  C   C118      1.0  0.04547021540698454  0.30228568347862655  0.44005344448365336  1.0000
  C   C119      1.0  0.045470215150770266  0.19771431590597258  0.9400534445285634  1.0000
  C   C120      1.0  0.9545297849432888  0.6977143166603909  0.5599465556201547  1.0000
  N   N1        1.0  0.5280669487822103  0.8744455478290304  0.27640923389727584  1.0000
  N   N2        1.0  0.4719330510776272  0.3744455470746121  0.22359076615545903  1.0000
  N   N3        1.0  0.4719330508214129  0.125554452309987  0.7235907662003691  1.0000
  N   N4        1.0  0.5280669485259961  0.6255544530644053  0.7764092339421858  1.0000
  N   N5        1.0  0.6914661438194284  0.7611334284403966  0.33489653169713796  1.0000
  N   N6        1.0  0.3085338560404092  0.2611334276859782  0.16510346835559692  1.0000
  N   N7        1.0  0.3085338557841949  0.23886657169862097  0.6651034684005068  1.0000
  N   N8        1.0  0.6914661443098641  0.7388665724530393  0.8348965317482113  1.0000
  O   O1        1.0  0.623676371271995  0.965739458068504  0.19250430054137943  1.0000
  O   O2        1.0  0.3763236285878424  0.4657394573140858  0.3074956995113554  1.0000
  O   O3        1.0  0.37632362833162813  0.03426054207051334  0.8074956995562654  1.0000
  O   O4        1.0  0.6236763717624307  0.5342605428249316  0.6925043005924527  1.0000
  O   O5        1.0  0.7545242347697091  0.6163688894543342  0.24612087155350976  1.0000
  O   O6        1.0  0.24547576583677835  0.11636888869991598  0.25387912850538835  1.0000
  O   O7        1.0  0.24547576558056405  0.38363111068468314  0.7538791285502985  1.0000
  O   O8        1.0  0.7545242345134948  0.8836311100692823  0.7461208715984197  1.0000
  O   O9        1.0  0.8082302929208937  0.6523381508210112  0.00010222874190265996  1.0000
  O   O10       1.0  0.19176970768683174  0.15233815006659285  0.4998977709046624  1.0000
  O   O11       1.0  0.19176970743061744  0.34766184931800626  0.9998977709495723  1.0000
  O   O12       1.0  0.8082302926646793  0.8476618500724247  0.5001022287868127  1.0000
  S   S1        1.0  0.8228055689428498  0.8006851381878293  0.04315940417709994  1.0000
  S   S2        1.0  0.1771944309169876  0.30068513743341097  0.45684059587563497  1.0000
  S   S3        1.0  0.1771944314074233  0.19931486195118814  0.9568405959267082  1.0000
  S   S4        1.0  0.8228055686866356  0.6993148627056065  0.5431594042220099  1.0000
