data_image0
_chemical_formula_structural       H128C80N40O16Cl8
_chemical_formula_sum              "H128 C80 N40 O16 Cl8"
_cell_length_a       18.786564171538785
_cell_length_b       6.261559687608711
_cell_length_c       23.86761054294931
_cell_angle_alpha    90.0
_cell_angle_beta     104.6336721257166
_cell_angle_gamma    90.0

_space_group_name_H-M_alt    "P 1"
_space_group_IT_number       1

loop_
  _space_group_symop_operation_xyz
  'x, y, z'

loop_
  _atom_site_type_symbol
  _atom_site_label
  _atom_site_symmetry_multiplicity
  _atom_site_fract_x
  _atom_site_fract_y
  _atom_site_fract_z
  _atom_site_occupancy
  H   H1        1.0  0.9932104444063362  0.6213394480131198  0.2998529039593458  1.0000
  H   H2        1.0  0.006789555940870617  0.6213394480131198  0.20014709602866101  1.0000
  H   H3        1.0  0.4932104441235466  0.12133944862069303  0.29985290400078674  1.0000
  H   H4        1.0  0.5067895556917095  0.12133944862069303  0.20014709598828845  1.0000
  H   H5        1.0  0.0067895557224981595  0.3786605507717338  0.7001470960995497  1.0000
  H   H6        1.0  0.9932104441879639  0.3786605507717338  0.7998529040302346  1.0000
  H   H7        1.0  0.506789555473337  0.8786605517612067  0.7001470960591772  1.0000
  H   H8        1.0  0.49321044443712486  0.8786605517612067  0.7998529040706069  1.0000
  H   H9        1.0  0.3409410249127652  0.5858795816096432  0.3543764004432731  1.0000
  H   H10       1.0  0.6590589754344416  0.5858795816096432  0.14562359954473364  1.0000
  H   H11       1.0  0.8409410246636041  0.08587958221721637  0.3543764004029006  1.0000
  H   H12       1.0  0.15905897515165202  0.08587958221721637  0.1456235995861746  1.0000
  H   H13       1.0  0.6590589752160692  0.41412041877225664  0.6456235996156224  1.0000
  H   H14       1.0  0.3409410246943928  0.41412041877225664  0.854376400514162  1.0000
  H   H15       1.0  0.1590589754652304  0.9141204181646834  0.645623599655995  1.0000
  H   H16       1.0  0.8409410249771825  0.9141204181646834  0.8543764004727209  1.0000
  H   H17       1.0  0.9888711128592784  0.7348185259824878  0.39218344327848376  1.0000
  H   H18       1.0  0.011128886955977654  0.7348185259824878  0.10781655671059144  1.0000
  H   H19       1.0  0.48887111257648874  0.23481852659006094  0.3921834433199247  1.0000
  H   H20       1.0  0.5111288872387673  0.23481852659006094  0.10781655666915048  1.0000
  H   H21       1.0  0.011128887269556026  0.26518147280236587  0.6078165567804118  1.0000
  H   H22       1.0  0.9888711126409061  0.26518147280236587  0.8921834433493726  1.0000
  H   H23       1.0  0.5111288870203948  0.7651814737918389  0.6078165567400392  1.0000
  H   H24       1.0  0.4888711128900671  0.7651814737918389  0.892183443389745  1.0000
  H   H25       1.0  0.08639259350275207  0.7382513783503311  0.41543469051703297  1.0000
  H   H26       1.0  0.913607406312504  0.7382513783503311  0.08456530947204231  1.0000
  H   H27       1.0  0.5863925932535909  0.23825137895790427  0.4154346904766604  1.0000
  H   H28       1.0  0.4136074065616651  0.23825137895790427  0.08456530951241488  1.0000
  H   H29       1.0  0.9136074066260823  0.2617486220315687  0.5845653095418627  1.0000
  H   H30       1.0  0.08639259328437966  0.2617486220315687  0.9154346905879217  1.0000
  H   H31       1.0  0.4136074062029932  0.7617486214239955  0.5845653091502802  1.0000
  H   H32       1.0  0.5863925935671692  0.7617486214239955  0.9154346905464806  1.0000
  H   H33       1.0  0.26364204971645333  0.5187598477146362  0.44672561528816696  1.0000
  H   H34       1.0  0.7363579506307536  0.5187598477146362  0.05327438469983988  1.0000
  H   H35       1.0  0.7636420494672922  0.018759848322209352  0.44672561524779436  1.0000
  H   H36       1.0  0.23635795034796386  0.018759848322209352  0.05327438474128084  1.0000
  H   H37       1.0  0.7363579504123812  0.48124015266726367  0.5532743847707287  1.0000
  H   H38       1.0  0.26364204949808095  0.48124015266726367  0.9467256153590557  1.0000
  H   H39       1.0  0.23635795066154222  0.9812401520596905  0.5532743848111011  1.0000
  H   H40       1.0  0.7636420497808705  0.9812401520596905  0.9467256153176147  1.0000
  H   H41       1.0  0.9923335573786882  0.328544885401491  0.39587740261832505  1.0000
  H   H42       1.0  0.00766644243656786  0.328544885401491  0.10412259737075015  1.0000
  H   H43       1.0  0.49233355762784936  0.8285448847939179  0.3958774026586976  1.0000
  H   H44       1.0  0.5076664421874068  0.8285448847939179  0.10412259733037758  1.0000
  H   H45       1.0  0.007666442218195435  0.6714551149804088  0.6041225974416389  1.0000
  H   H46       1.0  0.9923335576922666  0.6714551149804088  0.8958774026881454  1.0000
  H   H47       1.0  0.5076664425009851  0.171455115587982  0.6041225974001979  1.0000
  H   H48       1.0  0.4923335572691774  0.171455115587982  0.8958774022965629  1.0000
  H   H49       1.0  0.03344706938805391  0.4445408442737412  0.4650654168897242  1.0000
  H   H50       1.0  0.9665529304272023  0.4445408442737412  0.03493458309935099  1.0000
  H   H51       1.0  0.5334470696708435  0.944540843666168  0.46506541684828323  1.0000
  H   H52       1.0  0.46655293014441246  0.944540843666168  0.03493458314079196  1.0000
  H   H53       1.0  0.9665529302088297  0.5554591561081585  0.5349345831702398  1.0000
  H   H54       1.0  0.03344706956133275  0.5554591561081585  0.9650654165265211  1.0000
  H   H55       1.0  0.46655293045799096  0.055459155118685585  0.5349345832106123  1.0000
  H   H56       1.0  0.5334470694524711  0.055459155118685585  0.965065416919172  1.0000
  H   H57       1.0  0.08987628683744349  0.34103687045032666  0.42199773970740045  1.0000
  H   H58       1.0  0.9101237129778126  0.34103687045032666  0.07800226028167478  1.0000
  H   H59       1.0  0.5898762871202331  0.8410368714397997  0.4219977396659595  1.0000
  H   H60       1.0  0.4101237132269737  0.8410368714397997  0.07800226032204735  1.0000
  H   H61       1.0  0.910123713291391  0.658963128334527  0.578002260351495  1.0000
  H   H62       1.0  0.08987628715102182  0.658963128334527  0.9219977397772208  1.0000
  H   H63       1.0  0.41012371300860134  0.15896312894210016  0.5780022603929361  1.0000
  H   H64       1.0  0.5898762869018607  0.15896312894210016  0.9219977397368482  1.0000
  H   H65       1.0  0.3584888599945061  0.9170026744874515  0.44590743094240953  1.0000
  H   H66       1.0  0.64151113982075  0.9170026744874515  0.05409256904666575  1.0000
  H   H67       1.0  0.8584888597453448  0.41700267349797854  0.44590743090203694  1.0000
  H   H68       1.0  0.14151114006991122  0.41700267349797854  0.05409256908703831  1.0000
  H   H69       1.0  0.6415111401343284  0.08299732589444828  0.5540925691164862  1.0000
  H   H70       1.0  0.358488859635834  0.08299732589444828  0.9459074305802747  1.0000
  H   H71       1.0  0.1415111398515388  0.5829973252868751  0.554092569157927  1.0000
  H   H72       1.0  0.8584888600589234  0.5829973252868751  0.9459074309718574  1.0000
  H   H73       1.0  0.3179454498727838  0.8406508254511647  0.5026090429328955  1.0000
  H   H74       1.0  0.6820545500376782  0.8406508254511647  0.9973909571968886  1.0000
  H   H75       1.0  0.8179454501555734  0.3406508260587378  0.5026090428914546  1.0000
  H   H76       1.0  0.1820545502868394  0.3406508260587378  0.9973909572372613  1.0000
  H   H77       1.0  0.6820545502560506  0.15934917493073517  0.49739095712599996  1.0000
  H   H78       1.0  0.3179454500911562  0.15934917493073517  0.002609042862006853  1.0000
  H   H79       1.0  0.182054549973261  0.659349174323162  0.4973909571674409  1.0000
  H   H80       1.0  0.817945449841995  0.659349174323162  0.002609042821634288  1.0000
  H   H81       1.0  0.26067615310481634  0.9145448459642394  0.4337706604421331  1.0000
  H   H82       1.0  0.7393238472423905  0.9145448459642394  0.06622933954587372  1.0000
  H   H83       1.0  0.7606761528556552  0.41454484657181256  0.4337706604017605  1.0000
  H   H84       1.0  0.2393238469596009  0.41454484657181256  0.06622933958731468  1.0000
  H   H85       1.0  0.7393238470240181  0.08545515282061424  0.5662293396167625  1.0000
  H   H86       1.0  0.2606761528864439  0.08545515282061424  0.9337706605130218  1.0000
  H   H87       1.0  0.23932384727317926  0.5854551538100873  0.5662293396571351  1.0000
  H   H88       1.0  0.7606761531692336  0.5854551538100873  0.933770660471581  1.0000
  H   H89       1.0  0.37778438991958385  0.3137007132403698  0.44969671576360787  1.0000
  H   H90       1.0  0.6222156098956723  0.3137007132403698  0.05030328422546731  1.0000
  H   H91       1.0  0.8777843896704227  0.8137007126327966  0.44969671572323533  1.0000
  H   H92       1.0  0.12221561014483338  0.8137007126327966  0.05030328426583987  1.0000
  H   H93       1.0  0.6222156102092506  0.68629928714153  0.5503032842952876  1.0000
  H   H94       1.0  0.37778438970121136  0.68629928714153  0.9496967158344966  1.0000
  H   H95       1.0  0.12221561045841177  0.18629928774910318  0.5503032843356602  1.0000
  H   H96       1.0  0.8777843899840009  0.18629928774910318  0.9496967157930556  1.0000
  H   H97       1.0  0.39207561701882154  0.48708386762416345  0.5105302570922031  1.0000
  H   H98       1.0  0.6079243828916405  0.48708386762416345  0.9894697430375811  1.0000
  H   H99       1.0  0.8920756173016112  0.9870838670165902  0.5105302570507623  1.0000
  H   H100      1.0  0.10792438314080162  0.9870838670165902  0.9894697430779538  1.0000
  H   H101      1.0  0.6079243831100128  0.5129161327577364  0.4894697429666924  1.0000
  H   H102      1.0  0.392075617237194  0.5129161327577364  0.010530257021314444  1.0000
  H   H103      1.0  0.10792438282722328  0.01291613336530953  0.4894697430081334  1.0000
  H   H104      1.0  0.8920756169880328  0.01291613336530953  0.01053025698094188  1.0000
  H   H105      1.0  0.4283835990636848  0.554179468554296  0.45080129902168453  1.0000
  H   H106      1.0  0.5716164007515714  0.554179468554296  0.049198700967390735  1.0000
  H   H107      1.0  0.9283835993464743  0.054179469161869276  0.4508012989802435  1.0000
  H   H108      1.0  0.0716164010007325  0.054179469161869276  0.049198701007763294  1.0000
  H   H109      1.0  0.5716164010651497  0.4458205318276037  0.549198701037211  1.0000
  H   H110      1.0  0.42838359937726306  0.4458205318276037  0.9508012990915048  1.0000
  H   H111      1.0  0.07161640064206054  0.9458205312200305  0.5491987006456286  1.0000
  H   H112      1.0  0.928383599128102  0.9458205312200305  0.9508012990511322  1.0000
  H   H113      1.0  0.29698208182136915  0.594464332483515  0.25193083517734327  1.0000
  H   H114      1.0  0.7030179185258377  0.594464332483515  0.24806916481066357  1.0000
  H   H115      1.0  0.7969820817125075  0.09446433309108829  0.2519308355699941  1.0000
  H   H116      1.0  0.20301791810274858  0.09446433309108829  0.24806916441908106  1.0000
  H   H117      1.0  0.7030179181671657  0.40553566789838474  0.7480691644485288  1.0000
  H   H118      1.0  0.2969820816029967  0.40553566789838474  0.751930835248232  1.0000
  H   H119      1.0  0.20301791841632694  0.9055356672908115  0.7480691644889014  1.0000
  H   H120      1.0  0.7969820818857865  0.9055356672908115  0.751930835206791  1.0000
  H   H121      1.0  0.4481178667358958  0.6003540152207061  0.1885933020510989  1.0000
  H   H122      1.0  0.5518821330793603  0.6003540152207061  0.3114066979379763  1.0000
  H   H123      1.0  0.9481178664867347  0.10035401582827927  0.18859330201072633  1.0000
  H   H124      1.0  0.05188213332852139  0.10035401582827927  0.3114066979783489  1.0000
  H   H125      1.0  0.5518821333929386  0.39964598356414754  0.8114066980077965  1.0000
  H   H126      1.0  0.4481178665175235  0.39964598356414754  0.6885933021219877  1.0000
  H   H127      1.0  0.05188213296984939  0.8996459845536205  0.8114066976162142  1.0000
  H   H128      1.0  0.948117866800313  0.8996459845536205  0.6885933020805466  1.0000
  C   C1        1.0  0.2298641169369415  0.5964793671760644  0.33624986520485906  1.0000
  C   C2        1.0  0.7701358828783146  0.5964793671760644  0.16375013478421618  1.0000
  C   C3        1.0  0.7298641166877804  0.09647936618659143  0.33624986516448646  1.0000
  C   C4        1.0  0.2701358831274757  0.09647936618659143  0.16375013482458875  1.0000
  C   C5        1.0  0.770135883191893  0.4035206332058353  0.6637501348540366  1.0000
  C   C6        1.0  0.22986411671856902  0.4035206332058353  0.8362498652757477  1.0000
  C   C7        1.0  0.27013588290910334  0.9035206341953084  0.6637501348954775  1.0000
  C   C8        1.0  0.7298641170013588  0.9035206341953084  0.8362498652343069  1.0000
  C   C9        1.0  0.1614403382744866  0.5939698103269783  0.2430554851274804  1.0000
  C   C10       1.0  0.8385596615407696  0.5939698103269783  0.25694451486159475  1.0000
  C   C11       1.0  0.6614403385572762  0.09396981093455149  0.24305548508603947  1.0000
  C   C12       1.0  0.3385596617899306  0.09396981093455149  0.25694451490196735  1.0000
  C   C13       1.0  0.8385596618543479  0.40603019005492147  0.7569445149314152  1.0000
  C   C14       1.0  0.16144033858806495  0.40603019005492147  0.7430554851973008  1.0000
  C   C15       1.0  0.3385596615715582  0.9060301894473483  0.7569445149728561  1.0000
  C   C16       1.0  0.6614403383389038  0.9060301894473483  0.7430554851569282  1.0000
  C   C17       1.0  0.10485861937219423  0.6119406906848998  0.31584561323776805  1.0000
  C   C18       1.0  0.8951413804430618  0.6119406906848998  0.18415438675130713  1.0000
  C   C19       1.0  0.6048586196549838  0.11194068969542674  0.31584561319632704  1.0000
  C   C20       1.0  0.395141380692223  0.11194068969542674  0.1841543867916797  1.0000
  C   C21       1.0  0.8951413802246895  0.38805930969700003  0.6841543868221959  1.0000
  C   C22       1.0  0.10485861968577259  0.38805930969700003  0.8158456133075884  1.0000
  C   C23       1.0  0.39514138047385056  0.8880593090894269  0.6841543868625685  1.0000
  C   C24       1.0  0.6048586194366115  0.8880593090894269  0.8158456132672159  1.0000
  C   C25       1.0  0.038813470977168266  0.6442935468591998  0.3919751986161994  1.0000
  C   C26       1.0  0.9611865293700385  0.6442935468591998  0.10802480137180745  1.0000
  C   C27       1.0  0.5388134708683067  0.1442935458697268  0.39197519900885025  1.0000
  C   C28       1.0  0.46118652908724894  0.1442935458697268  0.10802480141324843  1.0000
  C   C29       1.0  0.9611865290113667  0.35570645352270003  0.6080248010096727  1.0000
  C   C30       1.0  0.03881347075879588  0.35570645352270003  0.8919751986870882  1.0000
  C   C31       1.0  0.4611865292605278  0.8557064529151268  0.6080248010500453  1.0000
  C   C32       1.0  0.5388134705096347  0.8557064529151268  0.8919751986467155  1.0000
  C   C33       1.0  0.3100562329300156  0.5999573792188302  0.4355241629330139  1.0000
  C   C34       1.0  0.6899437668852405  0.5999573792188302  0.06447583705606136  1.0000
  C   C35       1.0  0.8100562332128052  0.09995737822935725  0.4355241628915729  1.0000
  C   C36       1.0  0.18994376713440161  0.09995737822935725  0.06447583709643391  1.0000
  C   C37       1.0  0.6899437666668681  0.40004262116306954  0.56447583712695  1.0000
  C   C38       1.0  0.31005623324359394  0.40004262116306954  0.9355241630028341  1.0000
  C   C39       1.0  0.18994376691602918  0.9000426221525426  0.5644758371673226  1.0000
  C   C40       1.0  0.8100562329944327  0.9000426221525426  0.9355241629624618  1.0000
  C   C41       1.0  0.03828631945613557  0.42605533015669794  0.4203886116353929  1.0000
  C   C42       1.0  0.9617136803591204  0.42605533015669794  0.0796113883536823  1.0000
  C   C43       1.0  0.5382863197389252  0.9260553311461709  0.4203886115939519  1.0000
  C   C44       1.0  0.46171368007633085  0.9260553311461709  0.07961138839512326  1.0000
  C   C45       1.0  0.9617136801407481  0.5739446686281556  0.579611388424571  1.0000
  C   C46       1.0  0.038286319769713924  0.5739446686281556  0.9203886117052132  1.0000
  C   C47       1.0  0.46171368038990923  0.07394466923572887  0.5796113884649436  1.0000
  C   C48       1.0  0.5382863195205527  0.07394466923572887  0.9203886116648407  1.0000
  C   C49       1.0  0.3117770340151723  0.8324713138669575  0.4556825869419366  1.0000
  C   C50       1.0  0.6882229663320345  0.8324713138669575  0.044317413046070224  1.0000
  C   C51       1.0  0.8117770337660111  0.33247131287748444  0.455682586901564  1.0000
  C   C52       1.0  0.18822296604924488  0.33247131287748444  0.04431741308751119  1.0000
  C   C53       1.0  0.6882229661136622  0.1675286865149423  0.5443174131169589  1.0000
  C   C54       1.0  0.31177703379679994  0.1675286865149423  0.9556825870128254  1.0000
  C   C55       1.0  0.18822296622252369  0.6675286875044153  0.544317412724308  1.0000
  C   C56       1.0  0.8117770340795895  0.6675286875044153  0.9556825869713844  1.0000
  C   C57       1.0  0.3812614801363036  0.4817129901307248  0.4631914383267861  1.0000
  C   C58       1.0  0.6187385202109033  0.4817129901307248  0.036808561661220665  1.0000
  C   C59       1.0  0.8812614798871423  0.9817129911201979  0.4631914382864135  1.0000
  C   C60       1.0  0.11873851992811366  0.9817129911201979  0.036808561702661634  1.0000
  C   C61       1.0  0.6187385199925308  0.5182870086541288  0.5368085617321094  1.0000
  C   C62       1.0  0.38126147977763164  0.5182870086541288  0.9631914379646515  1.0000
  C   C63       1.0  0.11873852024169203  0.018287009261701938  0.536808561772482  1.0000
  C   C64       1.0  0.8812614802007207  0.018287009261701938  0.963191438356234  1.0000
  C   C65       1.0  0.464460900337755  0.6003851799799251  0.23574320246721556  1.0000
  C   C66       1.0  0.5355390994775011  0.6003851799799251  0.26425679752185965  1.0000
  C   C67       1.0  0.9644609006205447  0.10038517899045211  0.2357432024257746  1.0000
  C   C68       1.0  0.03553909919471147  0.10038517899045211  0.26425679756330056  1.0000
  C   C69       1.0  0.5355390992591287  0.39961482040197466  0.7642567975927483  1.0000
  C   C70       1.0  0.4644609005110337  0.39961482040197466  0.7357432021040123  1.0000
  C   C71       1.0  0.03553909950828986  0.8996148197944014  0.764256797633121  1.0000
  C   C72       1.0  0.9644609004021721  0.8996148197944014  0.7357432024966635  1.0000
  C   C73       1.0  0.40526605411251776  0.595762365306884  0.26641753163018383  1.0000
  C   C74       1.0  0.5947339457027383  0.595762365306884  0.23358246835889132  1.0000
  C   C75       1.0  0.9052660543953074  0.09576236431741106  0.26641753158874293  1.0000
  C   C76       1.0  0.09473394595189942  0.09576236431741106  0.2335824683992639  1.0000
  C   C77       1.0  0.5947339460163167  0.40423763507501576  0.7335824684287118  1.0000
  C   C78       1.0  0.4052660542857966  0.40423763507501576  0.7664175312669808  1.0000
  C   C79       1.0  0.09473394573352699  0.9042376360644887  0.7335824684701526  1.0000
  C   C80       1.0  0.9052660540366356  0.9042376360644887  0.7664175312266082  1.0000
  N   N1        1.0  0.09794290240837476  0.6023198097853348  0.25690406331744303  1.0000
  N   N2        1.0  0.9020570974068812  0.6023198097853348  0.24309593667163218  1.0000
  N   N3        1.0  0.5979429021592136  0.10231980879586187  0.25690406327707044  1.0000
  N   N4        1.0  0.4020570976560425  0.10231980879586187  0.24309593671200477  1.0000
  N   N5        1.0  0.9020570977204596  0.3976801905965649  0.7430959367414525  1.0000
  N   N6        1.0  0.09794290219000236  0.3976801905965649  0.7569040633883317  1.0000
  N   N7        1.0  0.40205709729737044  0.8976801899889917  0.74309593634987  1.0000
  N   N8        1.0  0.5979429024727919  0.8976801899889917  0.7569040633468908  1.0000
  N   N9        1.0  0.22838750012881656  0.5914749431086853  0.27820612359851005  1.0000
  N   N10       1.0  0.7716124996864395  0.5914749431086853  0.22179387639056516  1.0000
  N   N11       1.0  0.7283875004116063  0.09147494211921231  0.2782061235570691  1.0000
  N   N12       1.0  0.27161249940364984  0.09147494211921231  0.22179387643200613  1.0000
  N   N13       1.0  0.7716124994680671  0.40852505727321453  0.721793876461454  1.0000
  N   N14       1.0  0.22838750030209537  0.40852505727321453  0.7782061232353069  1.0000
  N   N15       1.0  0.27161249971722823  0.9085250582626875  0.7217938765018265  1.0000
  N   N16       1.0  0.7283875001932338  0.9085250582626875  0.7782061236279577  1.0000
  N   N17       1.0  0.04199208477051699  0.6286193626468823  0.3319384646769784  1.0000
  N   N18       1.0  0.9580079150447391  0.6286193626468823  0.16806153531209678  1.0000
  N   N19       1.0  0.5419920845213558  0.12861936325445553  0.33193846463660587  1.0000
  N   N20       1.0  0.4580079152939002  0.12861936325445553  0.16806153535246934  1.0000
  N   N21       1.0  0.9580079153583174  0.37138063773501745  0.668061535381917  1.0000
  N   N22       1.0  0.04199208455214464  0.37138063773501745  0.8319384647478673  1.0000
  N   N23       1.0  0.45800791507552774  0.8713806371274443  0.6680615354233581  1.0000
  N   N24       1.0  0.5419920848349342  0.8713806371274443  0.8319384647064262  1.0000
  N   N25       1.0  0.1693709636251088  0.6082898958126193  0.3562752265848296  1.0000
  N   N26       1.0  0.8306290361901472  0.6082898958126193  0.14372477340424566  1.0000
  N   N27       1.0  0.6693709639078985  0.10828989642019246  0.3562752265433886  1.0000
  N   N28       1.0  0.3306290364393084  0.10828989642019246  0.14372477344461823  1.0000
  N   N29       1.0  0.8306290365037255  0.3917101045692805  0.643724773474066  1.0000
  N   N30       1.0  0.16937096393868714  0.3917101045692805  0.8562752266546497  1.0000
  N   N31       1.0  0.330629036220936  0.8917101039617074  0.6437247735155069  1.0000
  N   N32       1.0  0.669370963689526  0.8917101039617074  0.8562752266142772  1.0000
  N   N33       1.0  0.29663043733237804  0.587463539999376  0.3727286212401644  1.0000
  N   N34       1.0  0.7033695624828781  0.587463539999376  0.12727137874891079  1.0000
  N   N35       1.0  0.7966304376151676  0.08746354060694908  0.3727286211987234  1.0000
  N   N36       1.0  0.20336956220008842  0.08746354060694908  0.12727137879035177  1.0000
  N   N37       1.0  0.7033695622645056  0.41253646038252395  0.6272713788197996  1.0000
  N   N38       1.0  0.2966304375056568  0.41253646038252395  0.8727286208769613  1.0000
  N   N39       1.0  0.2033695625136668  0.9125364597749508  0.6272713788601721  1.0000
  N   N40       1.0  0.7966304373967952  0.9125364597749508  0.872728621269612  1.0000
  O   O1        1.0  0.4169604477786552  0.5874608282149568  0.31997423793299784  1.0000
  O   O2        1.0  0.5830395520366008  0.5874608282149568  0.18002576205607734  1.0000
  O   O3        1.0  0.9169604480614449  0.08746082882253002  0.3199742378915569  1.0000
  O   O4        1.0  0.083039552285762  0.08746082882253002  0.18002576209644996  1.0000
  O   O5        1.0  0.5830395523501791  0.4125391705698968  0.6800257621258977  1.0000
  O   O6        1.0  0.4169604480922336  0.4125391705698968  0.8199742380028182  1.0000
  O   O7        1.0  0.08303955206738955  0.9125391715593698  0.6800257621673387  1.0000
  O   O8        1.0  0.9169604478430725  0.9125391715593698  0.8199742379624457  1.0000
  O   O9        1.0  0.3390034704107825  0.5993429907610132  0.22992566250740462  1.0000
  O   O10       1.0  0.6609965294044736  0.5993429907610132  0.2700743374816706  1.0000
  O   O11       1.0  0.8390034706935722  0.09934298977154009  0.22992566246596366  1.0000
  O   O12       1.0  0.16099652965363473  0.09934298977154009  0.27007433752204313  1.0000
  O   O13       1.0  0.6609965297180519  0.40065700962088674  0.7700743375514909  1.0000
  O   O14       1.0  0.3390034707243609  0.40065700962088674  0.729925662577225  1.0000
  O   O15       1.0  0.16099652929496278  0.9006570090133136  0.7700743371599085  1.0000
  O   O16       1.0  0.8390034704751997  0.9006570090133136  0.7299256625368524  1.0000
  Cl  Cl1       1.0  0.15806649665160918  0.5849698002956882  0.16981483538609024  1.0000
  Cl  Cl2       1.0  0.8419335031636468  0.5849698002956882  0.33018516460298497  1.0000
  Cl  Cl3       1.0  0.6580664969343988  0.08496980090326142  0.16981483534464925  1.0000
  Cl  Cl4       1.0  0.341933503412808  0.08496980090326142  0.3301851646433575  1.0000
  Cl  Cl5       1.0  0.8419335034772252  0.4150302000862116  0.8301851646728053  1.0000
  Cl  Cl6       1.0  0.15806649696518757  0.4150302000862116  0.6698148354559106  1.0000
  Cl  Cl7       1.0  0.34193350319443555  0.9150301994786384  0.8301851647142462  1.0000
  Cl  Cl8       1.0  0.6580664967160265  0.9150301994786384  0.669814835415538  1.0000
