data_image0
_chemical_formula_structural       H52C52N2O8S2Br2
_chemical_formula_sum              "H52 C52 N2 O8 S2 Br2"
_cell_length_a       12.961555118746599
_cell_length_b       6.688318065203308
_cell_length_c       14.308387034134498
_cell_angle_alpha    90.0
_cell_angle_beta     109.89440374472062
_cell_angle_gamma    90.0

_space_group_name_H-M_alt    "P 1"
_space_group_IT_number       1

loop_
  _space_group_symop_operation_xyz
  'x, y, z'

loop_
  _atom_site_type_symbol
  _atom_site_label
  _atom_site_symmetry_multiplicity
  _atom_site_fract_x
  _atom_site_fract_y
  _atom_site_fract_z
  _atom_site_occupancy
  H   H1        1.0  0.4260458113280581  0.8604849745322415  0.10124738927358544  1.0000
  H   H2        1.0  0.5739541883261912  0.36048497492122633  0.8987526101979989  1.0000
  H   H3        1.0  0.16457886797164165  0.6602091104149327  0.03137793899032384  1.0000
  H   H4        1.0  0.8354211319584194  0.1602091108039175  0.9686220612245002  1.0000
  H   H5        1.0  0.7462641379766721  0.7762401173787753  0.579936142524306  1.0000
  H   H6        1.0  0.2537358624503067  0.2762401177677602  0.4200638569505384  1.0000
  H   H7        1.0  0.6439909825420164  0.6158794557678959  0.5967695403609482  1.0000
  H   H8        1.0  0.3560090178849624  0.11587945615688071  0.4032304591138962  1.0000
  H   H9        1.0  0.6274248997520318  0.8765313824562848  0.5981500303496434  1.0000
  H   H10       1.0  0.3725751009507588  0.37653138284526966  0.40184996986844046  1.0000
  H   H11       1.0  0.4376368860311409  0.70469410157406  0.46153205606082565  1.0000
  H   H12       1.0  0.562363114395838  0.20469410196304472  0.5384679434140188  1.0000
  H   H13       1.0  0.34342787868824204  0.6869274569794763  0.2777027311147666  1.0000
  H   H14       1.0  0.6565721212418191  0.18692745736846114  0.7222972691000574  1.0000
  H   H15       1.0  0.41073968201033595  0.651297120970216  0.9418265851519507  1.0000
  H   H16       1.0  0.589260318416643  0.1512971213592008  0.05817341432289378  1.0000
  H   H17       1.0  0.25897062245845476  0.8244697091618323  0.9650302087421302  1.0000
  H   H18       1.0  0.7410293782443358  0.32446970805567277  0.0349697914759537  1.0000
  H   H19       1.0  0.29463859968801553  0.9452258412904632  0.8231151363787158  1.0000
  H   H20       1.0  0.7053614002420454  0.4452258401843038  0.17688486383610819  1.0000
  H   H21       1.0  0.25129464695621845  0.9425312804420846  0.6423638612118474  1.0000
  H   H22       1.0  0.7487053526980308  0.4425312808310694  0.357636138259737  1.0000
  H   H23       1.0  0.9960326722068269  0.46213386831597164  0.47542294470886065  1.0000
  H   H24       1.0  0.003967327447422352  0.9621338679269869  0.5245770547627238  1.0000
  H   H25       1.0  0.9631399426462691  0.44675636847261246  0.2963141607618891  1.0000
  H   H26       1.0  0.03686005805652135  0.9467563680836277  0.7036858394561949  1.0000
  H   H27       1.0  0.07939923876794817  0.6509767190426897  0.2223413761739576  1.0000
  H   H28       1.0  0.9206007611621128  0.1509767194316745  0.7776586240408664  1.0000
  H   H29       1.0  0.10566944018829297  0.40786326747710944  0.8027042137375734  1.0000
  H   H30       1.0  0.8943305594659563  0.9078632670881246  0.19729578573401094  1.0000
  H   H31       1.0  0.06391458264893912  0.4003831611914525  0.6224376249004786  1.0000
  H   H32       1.0  0.9360854172811217  0.9003831608024677  0.3775623753143454  1.0000
  H   H33       1.0  0.268884755024839  0.8615691559257261  0.5132733860217172  1.0000
  H   H34       1.0  0.7311152449052222  0.3615691563147109  0.48672661419310687  1.0000
  H   H35       1.0  0.22951276411681737  0.8569614220082359  0.3323517368977001  1.0000
  H   H36       1.0  0.7704872358132437  0.3569614209020765  0.667648263317124  1.0000
  H   H37       1.0  0.6497079109669899  0.7928625086759842  0.23239817998631487  1.0000
  H   H38       1.0  0.3502920889630712  0.292862509064969  0.7676018202285092  1.0000
  H   H39       1.0  0.7447553851636154  0.8067720968703627  0.4154120070151797  1.0000
  H   H40       1.0  0.2552446147664456  0.30677209725934745  0.5845879931996443  1.0000
  H   H41       1.0  0.1690030568039253  0.1678727460408045  0.24594013681686602  1.0000
  H   H42       1.0  0.8309969436230535  0.6678727456518196  0.7540598626579783  1.0000
  H   H43       1.0  0.03823040574266073  0.1669158687007007  0.14593665018429677  1.0000
  H   H44       1.0  0.9617695941874004  0.66691586980686  0.8540633500305272  1.0000
  H   H45       1.0  0.14154836657355566  0.3543536666311274  0.15074116226498163  1.0000
  H   H46       1.0  0.8584516330806936  0.8543536662421425  0.8492588372066028  1.0000
  H   H47       1.0  0.11803748747092203  0.018886752808183048  0.9217750148897731  1.0000
  H   H48       1.0  0.8819625132318686  0.5188867524191982  0.07822498532831104  1.0000
  H   H49       1.0  0.11404302260235441  0.2709008307225179  0.9638890051994788  1.0000
  H   H50       1.0  0.8859569773277066  0.7709008318286772  0.03611099501534513  1.0000
  H   H51       1.0  0.011977079423935118  0.0918835892684657  0.97050362760272  1.0000
  H   H52       1.0  0.9880229210030437  0.5918835888794809  0.02949637187212447  1.0000
  C   C1        1.0  0.6576717425117815  0.7558053266484925  0.56229609492204  1.0000
  C   C2        1.0  0.34232825741827944  0.2558053270374773  0.437703905292784  1.0000
  C   C3        1.0  0.5989508010631416  0.7523207016990223  0.45187939151724366  1.0000
  C   C4        1.0  0.4010491988669195  0.2523207005928629  0.5481206086975804  1.0000
  C   C5        1.0  0.48504566808103755  0.7219195353642662  0.4118303519141979  1.0000
  C   C6        1.0  0.5149543323459412  0.22191953575325096  0.5881696475606465  1.0000
  C   C7        1.0  0.43163579461321594  0.7120173029413548  0.30933582411730676  1.0000
  C   C8        1.0  0.5683642053168451  0.2120173033303396  0.6906641760975173  1.0000
  C   C9        1.0  0.491515801545324  0.7337623588107304  0.2451608656235609  1.0000
  C   C10       1.0  0.5084841983847369  0.2337623591997152  0.7548391345912631  1.0000
  C   C11       1.0  0.4104819813115077  0.559021144561304  0.08633482427343493  1.0000
  C   C12       1.0  0.5895180193912829  0.05902114495028886  0.9136651759446491  1.0000
  C   C13       1.0  0.35792530442639253  0.5702128431722648  0.9748047936485056  1.0000
  C   C14       1.0  0.6420746952278568  0.07021284206610547  0.025195205823078888  1.0000
  C   C15       1.0  0.2436170129841229  0.6695978400458839  0.9376966146160319  1.0000
  C   C16       1.0  0.7563829877186676  0.16959784043486864  0.06230338560205203  1.0000
  C   C17       1.0  0.2047577408816306  0.6746223050417748  0.825719770376974  1.0000
  C   C18       1.0  0.7952422587726188  0.1746223054307597  0.17428022909461038  1.0000
  C   C19       1.0  0.24412359523007826  0.825222494832447  0.7787879822530064  1.0000
  C   C20       1.0  0.7558764046999827  0.32522249522143193  0.22121201796181755  1.0000
  C   C21       1.0  0.22009803191853988  0.8221412881973716  0.6764246445085501  1.0000
  C   C22       1.0  0.7799019687842507  0.3221412885863564  0.3235753557095339  1.0000
  C   C23       1.0  0.15635060746355245  0.6687436507049607  0.6173464354878756  1.0000
  C   C24       1.0  0.8436493924665085  0.16874365109394554  0.38265356472694845  1.0000
  C   C25       1.0  0.13524260582132136  0.6622188294308287  0.5090856844020538  1.0000
  C   C26       1.0  0.8647573938329279  0.16221882981981353  0.4909143150695305  1.0000
  C   C27       1.0  0.049533846312959956  0.5459621080219966  0.44534825211196405  1.0000
  C   C28       1.0  0.9504661533412893  0.045962108410981424  0.5546517473596204  1.0000
  C   C29       1.0  0.03025109635415264  0.5382959116030855  0.3433943016655318  1.0000
  C   C30       1.0  0.9697489035759083  0.038295911992070324  0.6566056985492921  1.0000
  C   C31       1.0  0.09458626680933581  0.6508915735704726  0.30206215540275905  1.0000
  C   C32       1.0  0.9054137331207252  0.15089157395945738  0.6979378448120651  1.0000
  C   C33       1.0  0.422456423623551  0.3590315841127699  0.11111851321232023  1.0000
  C   C34       1.0  0.5775435760306983  0.8590315837237851  0.8888814862592642  1.0000
  C   C35       1.0  0.3887278201926982  0.24133841038418585  0.02185250841690094  1.0000
  C   C36       1.0  0.6112721797373628  0.7413384099952011  0.978147491797923  1.0000
  C   C37       1.0  0.13793627488135568  0.5248837489150251  0.7675002002501519  1.0000
  C   C38       1.0  0.8620637250487053  0.024883747808865743  0.23249979996467215  1.0000
  C   C39       1.0  0.11408159924180364  0.522157148621466  0.6649845599500004  1.0000
  C   C40       1.0  0.8859184004124457  0.022157149010450843  0.33501543952158414  1.0000
  C   C41       1.0  0.20040540104063603  0.7726164126201616  0.46634356340198013  1.0000
  C   C42       1.0  0.799594598889425  0.2726164115140022  0.5336564368128438  1.0000
  C   C43       1.0  0.17917425347468174  0.7686230887770634  0.36420653253069213  1.0000
  C   C44       1.0  0.8208257464553792  0.2686230891660483  0.6357934676841319  1.0000
  C   C45       1.0  0.6041329191238658  0.7704552190496581  0.28313274877378064  1.0000
  C   C46       1.0  0.3958670805303835  0.27045521943864287  0.7168672506978039  1.0000
  C   C47       1.0  0.6567364894076794  0.7784999127193458  0.3858801457090052  1.0000
  C   C48       1.0  0.34326351052238163  0.2784999131083307  0.6141198545058189  1.0000
  C   C49       1.0  0.12630210531766406  0.1989951116296893  0.1670349105863843  1.0000
  C   C50       1.0  0.873697894612397  0.6989951112407046  0.8329650896284397  1.0000
  C   C51       1.0  0.097414751759472  0.11331587891177271  0.9754922418248756  1.0000
  C   C52       1.0  0.9025852481705889  0.6133158785227878  0.024507758389948432  1.0000
  N   N1        1.0  0.43677800060735095  0.7264837635756636  0.13979447444018797  1.0000
  N   N2        1.0  0.56322199932271  0.2264837639646484  0.860205525774636  1.0000
  O   O1        1.0  0.3500209115555368  0.3654607789538039  0.9406807629619258  1.0000
  O   O2        1.0  0.6499790880987125  0.8654607800599633  0.05931923650965857  1.0000
  O   O3        1.0  0.16812040896788163  0.5742581307522264  0.9752483801342025  1.0000
  O   O4        1.0  0.8318795906863676  0.07425813114121131  0.02475161933738204  1.0000
  O   O5        1.0  0.3923829594998404  0.058689557848960926  0.009026902958951649  1.0000
  O   O6        1.0  0.6076170404302206  0.5586895574599761  0.9909730972558723  1.0000
  O   O7        1.0  0.15688159695968035  0.8276655111245415  0.11471997221589286  1.0000
  O   O8        1.0  0.8431184026945688  0.3276655115135262  0.8852800272556915  1.0000
  S   S1        1.0  0.18679945535688555  0.042027247696608386  0.09758125056957352  1.0000
  S   S2        1.0  0.8132005445731755  0.5420272473076235  0.9024187496452505  1.0000
  Br  Br1       1.0  0.4797398004944775  0.23613070799018476  0.23603881261062698  1.0000
  Br  Br2       1.0  0.5202601991597717  0.7361307076011999  0.7639611868609574  1.0000
