data_image0
_chemical_formula_structural       H58C40N10O6Cl4
_chemical_formula_sum              "H58 C40 N10 O6 Cl4"
_cell_length_a       8.798535310504004
_cell_length_b       9.508566936040827
_cell_length_c       13.57486230542101
_cell_angle_alpha    84.98547410542952
_cell_angle_beta     86.2674544236034
_cell_angle_gamma    80.01423996052307

_space_group_name_H-M_alt    "P 1"
_space_group_IT_number       1

loop_
  _space_group_symop_operation_xyz
  'x, y, z'

loop_
  _atom_site_type_symbol
  _atom_site_label
  _atom_site_symmetry_multiplicity
  _atom_site_fract_x
  _atom_site_fract_y
  _atom_site_fract_z
  _atom_site_occupancy
  H   H1        1.0  0.2581367139720058  0.9471422376074887  0.637316196391459  1.0000
  H   H2        1.0  0.7418632867505485  0.05285776240188033  0.36268380364968633  1.0000
  H   H3        1.0  0.1553097989791714  0.735688398564557  0.5926444504988064  1.0000
  H   H4        1.0  0.8446902006071337  0.2643116014414098  0.4073555495458344  1.0000
  H   H5        1.0  0.17308084855382325  0.866509381481441  0.2939761960497384  1.0000
  H   H6        1.0  0.826919152168731  0.13349061852792823  0.7060238039914069  1.0000
  H   H7        1.0  0.27786633141339967  0.08407419004899976  0.3255448083511554  1.0000
  H   H8        1.0  0.7221336693091548  0.9159258099603692  0.6744551916899898  1.0000
  H   H9        1.0  0.4196208232447794  0.6436165222681571  0.9369246675380695  1.0000
  H   H10       1.0  0.5803791774777749  0.35638347774121204  0.06307533250307575  1.0000
  H   H11       1.0  0.4784434509050719  0.7643670427260852  0.8409244310564521  1.0000
  H   H12       1.0  0.5215565486812331  0.2356329572798816  0.15907556898818864  1.0000
  H   H13       1.0  0.20549535891544854  0.6019474783813116  0.8357397375875882  1.0000
  H   H14       1.0  0.7945046406708567  0.3980525216246552  0.16426026245705252  1.0000
  H   H15       1.0  0.26776396468328145  0.7134083034132553  0.7364523490650134  1.0000
  H   H16       1.0  0.7322360360392728  0.2865916965961138  0.26354765097613186  1.0000
  H   H17       1.0  0.16320072465284846  0.8153724920734984  0.9414358335249923  1.0000
  H   H18       1.0  0.8367992760697058  0.18462750793587096  0.058564166516152906  1.0000
  H   H19       1.0  0.2089611462645925  0.9236126439936752  0.8350325562537291  1.0000
  H   H20       1.0  0.7910388533217126  0.07638735601229157  0.16496744379091152  1.0000
  H   H21       1.0  0.9857343036885281  0.8570426584767054  0.7497880883919523  1.0000
  H   H22       1.0  0.01426569703402602  0.1429573415326638  0.250211911649193  1.0000
  H   H23       1.0  0.921670816202172  0.9398582137505357  0.8605394450427362  1.0000
  H   H24       1.0  0.07832918338413306  0.060141786255431255  0.1394605550019046  1.0000
  H   H25       1.0  0.939992781112416  0.7515044891664345  0.8581787146845878  1.0000
  H   H26       1.0  0.060007218473888985  0.24849551083953245  0.14182128536005287  1.0000
  H   H27       1.0  0.7437593170286635  0.6156494960141201  0.8396910298088396  1.0000
  H   H28       1.0  0.2562406825576417  0.3843505039918468  0.16030897023580112  1.0000
  H   H29       1.0  0.6626903017340324  0.5213740828935076  0.942256612909258  1.0000
  H   H30       1.0  0.3373096978522726  0.4786259171124591  0.0577433871353829  1.0000
  H   H31       1.0  0.8280949112839113  0.3825693452574344  0.7588285193780421  1.0000
  H   H32       1.0  0.17190508830239382  0.6174306547485325  0.2411714806665987  1.0000
  H   H33       1.0  0.7501341866543968  0.28952545329510326  0.8630818034348194  1.0000
  H   H34       1.0  0.24986581293190827  0.7104745467108635  0.1369181966098213  1.0000
  H   H35       1.0  0.009509885695727709  0.466977297476291  0.8627892857002859  1.0000
  H   H36       1.0  0.9904901138905773  0.5330227025296758  0.13721071434435483  1.0000
  H   H37       1.0  0.9299813572331207  0.3842694637812104  0.9702580929789008  1.0000
  H   H38       1.0  0.07001864348943361  0.6157305362281588  0.029741907062244468  1.0000
  H   H39       1.0  0.08989875487126986  0.22184004777513394  0.7942837224142413  1.0000
  H   H40       1.0  0.9101012447150352  0.7781599522308329  0.20571627763039957  1.0000
  H   H41       1.0  0.01902621378204321  0.1422594990063232  0.9072500554921574  1.0000
  H   H42       1.0  0.980973786940511  0.8577405010030459  0.09274994454898779  1.0000
  H   H43       1.0  0.17739007232747778  0.2361376576887214  0.9063387531789981  1.0000
  H   H44       1.0  0.8226099273135854  0.7638623423933629  0.0936612461252198  1.0000
  H   H45       1.0  0.36048522673697453  0.21804744638191748  0.4313313782364814  1.0000
  H   H46       1.0  0.6395147739855797  0.7819525536274516  0.5686686218046639  1.0000
  H   H47       1.0  0.3946960070064832  0.251054684483226  0.747201761484642  1.0000
  H   H48       1.0  0.6053039925798218  0.7489453155227409  0.25279823855999883  1.0000
  H   H49       1.0  0.4502848086054664  0.37980903577752395  0.5018776877166811  1.0000
  H   H50       1.0  0.549715192117088  0.6201909642318452  0.4981223123244642  1.0000
  H   H51       1.0  0.6405946671113474  0.8787861428349023  0.998647596560543  1.0000
  H   H52       1.0  0.3594053324749576  0.12121385717106467  0.0013524034840976587  1.0000
  H   H53       1.0  0.6473546676124399  0.06553868053785053  0.005141284879692524  1.0000
  H   H54       1.0  0.35264533311011437  0.9344613194715186  0.9948587151614526  1.0000
  H   H55       1.0  0.8513566077786567  0.47644640113171494  0.5606169938951313  1.0000
  H   H56       1.0  0.1486433918624064  0.5235535989503695  0.4393830054090867  1.0000
  H   H57       1.0  0.9169985928024094  0.6467687473267489  0.5309368739973015  1.0000
  H   H58       1.0  0.0830014079201449  0.3532312526826201  0.4690631260438438  1.0000
  C   C1        1.0  0.27817520043319627  0.03313044071171543  0.4842179056267521  1.0000
  C   C2        1.0  0.7218247991531088  0.9668695592942514  0.5157820944178887  1.0000
  C   C3        1.0  0.2416542363800324  0.9331566494349899  0.5604717913830669  1.0000
  C   C4        1.0  0.7583457632610306  0.06684335064709446  0.4395282079211511  1.0000
  C   C5        1.0  0.18361422536174504  0.8150204971234657  0.5344184279196307  1.0000
  C   C6        1.0  0.8163857753608091  0.1849795028859036  0.46558157212151446  1.0000
  C   C7        1.0  0.1934298514833793  0.8865780927238933  0.36964645727092077  1.0000
  C   C8        1.0  0.8065701492391749  0.11342190728547596  0.6303535427702244  1.0000
  C   C9        1.0  0.25206972903302083  0.00841247029906923  0.38663052627563993  1.0000
  C   C10       1.0  0.7479302716895333  0.9915875297102998  0.6133694737655054  1.0000
  C   C11       1.0  0.36925931556139174  0.20168502977225564  0.5844811111227275  1.0000
  C   C12       1.0  0.6307406840249133  0.7983149702337112  0.4155188889219132  1.0000
  C   C13       1.0  0.4668602118424601  0.401177590918787  0.6481750824512024  1.0000
  C   C14       1.0  0.5331397877438449  0.5988224090871799  0.35182491759343837  1.0000
  C   C15       1.0  0.5645961922871942  0.5911819367912049  0.7002928882665163  1.0000
  C   C16       1.0  0.4354038072991111  0.40881806321476194  0.2997071117781244  1.0000
  C   C17       1.0  0.5356726204959946  0.5444945406485397  0.8097413393931395  1.0000
  C   C18       1.0  0.4643273802265596  0.45550545936082953  0.19025866064800573  1.0000
  C   C19       1.0  0.4646583808660933  0.40960355680360805  0.8263558968510876  1.0000
  C   C20       1.0  0.5353416198564609  0.5903964432057611  0.1736441031900576  1.0000
  C   C21       1.0  0.42388975765159614  0.6687479304351903  0.8564158066013722  1.0000
  C   C22       1.0  0.576110241934709  0.3312520695707766  0.1435841934432685  1.0000
  C   C23       1.0  0.26180823554803895  0.6966798390302529  0.8178223202945691  1.0000
  C   C24       1.0  0.7381917640382663  0.30332016097571407  0.18217767975007162  1.0000
  C   C25       1.0  0.1599161683026276  0.8267023538342487  0.8600056993377793  1.0000
  C   C26       1.0  0.8400838324199267  0.1732976461751205  0.13999430070336605  1.0000
  C   C27       1.0  0.9929336941871948  0.8450300120839773  0.8306920614432739  1.0000
  C   C28       1.0  0.007066305399110179  0.15496998792198965  0.16930793860136684  1.0000
  C   C29       1.0  0.6905666480889621  0.5207118625678931  0.8623033030202408  1.0000
  C   C30       1.0  0.30943335149734297  0.47928813743807375  0.13769669702439996  1.0000
  C   C31       1.0  0.8027119786102331  0.3850248931761138  0.8393035808864244  1.0000
  C   C32       1.0  0.19728802097607195  0.614975106829853  0.16069641915821625  1.0000
  C   C33       1.0  0.9545705000456843  0.37440131408811705  0.8902517235000528  1.0000
  C   C34       1.0  0.04542950067686996  0.6255986859212521  0.10974827654109238  1.0000
  C   C35       1.0  0.06643872383174312  0.2360504697087396  0.8736822627543108  1.0000
  C   C36       1.0  0.9335612768908113  0.7639495303006294  0.12631773728683449  1.0000
  C   C37       1.0  0.5827466568116589  0.988282981329275  0.979638624055565  1.0000
  C   C38       1.0  0.41725334277464615  0.011717018676691839  0.02036137598907586  1.0000
  C   C39       1.0  0.9510038910723786  0.5306429974507911  0.543244857288453  1.0000
  C   C40       1.0  0.048996108513926516  0.4693570025551756  0.4567551427561877  1.0000
  N   N1        1.0  0.15931516038153695  0.788631548091623  0.4415116808877337  1.0000
  N   N2        1.0  0.8406848392047681  0.21136845191434386  0.5584883191569071  1.0000
  N   N3        1.0  0.3395304903274313  0.15582973640517644  0.49703789231113676  1.0000
  N   N4        1.0  0.6604695092588738  0.8441702636007904  0.5029621077335039  1.0000
  N   N5        1.0  0.43236764500281116  0.32938136713590654  0.5724881633804785  1.0000
  N   N6        1.0  0.5676323545834939  0.6706186328700603  0.42751183666416215  1.0000
  N   N7        1.0  0.5254153362560976  0.5203691361800944  0.624941014173375  1.0000
  N   N8        1.0  0.4745846633302075  0.47963086382587256  0.3750589858712658  1.0000
  N   N9        1.0  0.4386184975814728  0.3464234423153344  0.7423527057188591  1.0000
  N   N10       1.0  0.5613815031410815  0.6535765576940348  0.2576472943222861  1.0000
  O   O1        1.0  0.34511700874305734  0.140281669298159  0.6671332241823665  1.0000
  O   O2        1.0  0.6548829908432479  0.8597183307078078  0.3328667758622742  1.0000
  O   O3        1.0  0.43058585843766767  0.35628846704597994  0.9088483188558458  1.0000
  O   O4        1.0  0.5694141411486375  0.6437115329599868  0.09115168118879491  1.0000
  O   O5        1.0  0.6245148609444685  0.7006236903289375  0.6805282827832264  1.0000
  O   O6        1.0  0.37548513977808584  0.2993763096804317  0.3194717172579188  1.0000
  Cl  Cl1       1.0  0.583301454606769  0.0142780263600431  0.8472285532610375  1.0000
  Cl  Cl2       1.0  0.416698544979536  0.9857219736459237  0.15277144678360324  1.0000
  Cl  Cl3       1.0  0.06449199613794854  0.49797793223631914  0.6509237788065114  1.0000
  Cl  Cl4       1.0  0.9355080034483566  0.5020220677696478  0.3490762212381293  1.0000
