data_image0
_chemical_formula_structural       H34C40N4O6Cl8
_chemical_formula_sum              "H34 C40 N4 O6 Cl8"
_cell_length_a       8.033961857484229
_cell_length_b       9.090128889206126
_cell_length_c       14.902260912151867
_cell_angle_alpha    82.61766586213044
_cell_angle_beta     80.33095164956863
_cell_angle_gamma    70.85667302384266

_space_group_name_H-M_alt    "P 1"
_space_group_IT_number       1

loop_
  _space_group_symop_operation_xyz
  'x, y, z'

loop_
  _atom_site_type_symbol
  _atom_site_label
  _atom_site_symmetry_multiplicity
  _atom_site_fract_x
  _atom_site_fract_y
  _atom_site_fract_z
  _atom_site_occupancy
  H   H1        1.0  0.554733117630106  0.5610509830447924  0.263247431147531  1.0000
  H   H2        1.0  0.4452668822700515  0.4389490170041759  0.736752568531591  1.0000
  H   H3        1.0  0.6938233690907986  0.3488937422792493  0.1458556272780103  1.0000
  H   H4        1.0  0.30617663062691186  0.6511062576797272  0.8541443730839423  1.0000
  H   H5        1.0  0.5012320501134163  0.1616288835970952  0.10676107345180513  1.0000
  H   H6        1.0  0.498767949604294  0.8383711163618812  0.8932389269101476  1.0000
  H   H7        1.0  0.194998837937579  0.6331324580524497  0.07161358290113813  1.0000
  H   H8        1.0  0.8050011632087548  0.3668675419911035  0.9283864167796931  1.0000
  H   H9        1.0  0.3722834077130541  0.977094736935796  0.2836380353503006  1.0000
  H   H10       1.0  0.6277165920046562  0.022905263023180574  0.7163619650116521  1.0000
  H   H11       1.0  0.5465014721851944  0.1498155340301864  0.30418923216184063  1.0000
  H   H12       1.0  0.45349852771496324  0.850184466018782  0.6958107675172812  1.0000
  H   H13       1.0  0.033605065265503394  0.7815528466154594  0.23186033721078644  1.0000
  H   H14       1.0  0.9663949344522071  0.218447153343517  0.7681396631511662  1.0000
  H   H15       1.0  0.2387264469133613  0.49972755999425983  0.2631761097241623  1.0000
  H   H16       1.0  0.7612735529867963  0.5002724400547084  0.7368238899549598  1.0000
  H   H17       1.0  0.191927877999872  0.24466342344484912  0.3128679622766263  1.0000
  H   H18       1.0  0.8080721231464618  0.7553365765987041  0.6871320374042049  1.0000
  H   H19       1.0  0.226947584763435  0.3073962589351532  0.590525126752396  1.0000
  H   H20       1.0  0.7730524151367224  0.6926037411138151  0.409474872926726  1.0000
  H   H21       1.0  0.40230551164874906  0.7745576940310023  0.10160863486983013  1.0000
  H   H22       1.0  0.5976944894975849  0.22544230601255083  0.8983913648110011  1.0000
  H   H23       1.0  0.6307919700584153  0.6624741423272507  0.09307640970653934  1.0000
  H   H24       1.0  0.3692080296592952  0.33752585763172577  0.9069235906554134  1.0000
  H   H25       1.0  0.3917171194436334  0.7217622881021094  0.3983957897460194  1.0000
  H   H26       1.0  0.6082828815202536  0.27823771185145196  0.6016042106176424  1.0000
  H   H27       1.0  0.16185092898901582  0.8013425587069315  0.39130624906728956  1.0000
  H   H28       1.0  0.8381490707286947  0.19865744125204496  0.6086937512946632  1.0000
  H   H29       1.0  0.16269475667604974  0.3291138003092555  0.05787057304230956  1.0000
  H   H30       1.0  0.8373052430416609  0.670886199649721  0.942129427319643  1.0000
  H   H31       1.0  0.9563565033731478  0.14455385660929804  0.932473832582324  1.0000
  H   H32       1.0  0.0436434965270098  0.8554461434396701  0.06752616709679803  1.0000
  H   H33       1.0  0.8469576718633797  0.13339950255380192  0.04401705420806109  1.0000
  H   H34       1.0  0.15304232785433092  0.8666004974051744  0.9559829461538915  1.0000
  C   C1        1.0  0.4944018161461175  0.6796285435915236  0.2316965524309979  1.0000
  C   C2        1.0  0.505598183571593  0.320371456367453  0.7683034479309547  1.0000
  C   C3        1.0  0.49851857881616246  0.6691523945822352  0.12948068197576124  1.0000
  C   C4        1.0  0.5014814210839952  0.3308476054667329  0.8705193177033608  1.0000
  C   C5        1.0  0.5623842622896468  0.3778662685962029  0.12601044176215911  1.0000
  C   C6        1.0  0.43761573742806364  0.6221337313627737  0.8739895585997935  1.0000
  C   C7        1.0  0.4669156813235002  0.28737039244089024  0.10687127897244963  1.0000
  C   C8        1.0  0.5330843185766574  0.7126296076080778  0.8931287207066724  1.0000
  C   C9        1.0  0.3026374794973744  0.5293974205040507  0.08751763894713764  1.0000
  C   C10       1.0  0.6973625214665127  0.4706025794495106  0.9124823614165242  1.0000
  C   C11       1.0  0.6008631626113652  0.7828495912275344  0.2463477155260037  1.0000
  C   C12       1.0  0.3991368372887924  0.2171504088214338  0.7536522841531182  1.0000
  C   C13       1.0  0.5171849244463976  0.934787851271515  0.27261810141989623  1.0000
  C   C14       1.0  0.48281507545375996  0.06521214877745311  0.7273818982592257  1.0000
  C   C15       1.0  0.6140234150050643  0.03165193605669586  0.2840276048731599  1.0000
  C   C16       1.0  0.38597658489509323  0.9683480639922722  0.7159723948059621  1.0000
  C   C17       1.0  0.7991757327726073  0.9758929760303202  0.26760168747361746  1.0000
  C   C18       1.0  0.2008242669451032  0.024107023928656362  0.732398312888335  1.0000
  C   C19       1.0  0.8887466583113665  0.8243463865160013  0.24244591487019285  1.0000
  C   C20       1.0  0.111253341588791  0.17565361353296685  0.757554084808929  1.0000
  C   C21       1.0  0.7876311598586568  0.7297861785072776  0.2322856392603398  1.0000
  C   C22       1.0  0.21236883985905364  0.270213821451699  0.7677143611016128  1.0000
  C   C23       1.0  0.25933460210154724  0.5506049683952544  0.3968726166222851  1.0000
  C   C24       1.0  0.7406653990447869  0.44939503164829875  0.6031273830585461  1.0000
  C   C25       1.0  0.23715998393107685  0.45769584020500087  0.33491068664263723  1.0000
  C   C26       1.0  0.7628400157866337  0.5423041597539756  0.6650893137193153  1.0000
  C   C27       1.0  0.21154279389962463  0.313417337273898  0.3624973004147368  1.0000
  C   C28       1.0  0.7884572060005332  0.6865826627750702  0.6375026992643851  1.0000
  C   C29       1.0  0.21051126642611562  0.25927564069952497  0.4543818379150011  1.0000
  C   C30       1.0  0.7894887332915949  0.7407243592594515  0.5456181624469515  1.0000
  C   C31       1.0  0.2305741733176388  0.3489429046963502  0.5187054060069021  1.0000
  C   C32       1.0  0.7694258264000716  0.6510570952626263  0.48129459435505056  1.0000
  C   C33       1.0  0.2536802044082386  0.49364930123032236  0.4890541152804428  1.0000
  C   C34       1.0  0.7463197953094717  0.5063506987286542  0.5109458850815098  1.0000
  C   C35       1.0  0.28299436819633744  0.708494212490345  0.36699500575952104  1.0000
  C   C36       1.0  0.7170056317038203  0.2915057875586232  0.6330049939196009  1.0000
  C   C37       1.0  0.11254230839426066  0.1386422763358694  0.03546834286882983  1.0000
  C   C38       1.0  0.8874576925696261  0.861357723617692  0.964531657494832  1.0000
  C   C39       1.0  0.9751243066074762  0.08723528913255034  0.0012615328583836954  1.0000
  C   C40       1.0  0.024875694356410714  0.912764710821011  0.9987384675052782  1.0000
  N   N1        1.0  0.4562118631331845  0.5316106244219143  0.1129861549763602  1.0000
  N   N2        1.0  0.5437881365845257  0.4683893755370624  0.8870138453855925  1.0000
  N   N3        1.0  0.30542761600434326  0.3835750474416176  0.08329323726423439  1.0000
  N   N4        1.0  0.6945723838958142  0.6164249526073505  0.9167067624148876  1.0000
  O   O1        1.0  0.31195589131544127  0.7375600884088106  0.26997169205661375  1.0000
  O   O2        1.0  0.6880441085847162  0.2624399116401576  0.7300283076225083  1.0000
  O   O3        1.0  0.06093798438695011  0.2929942289026259  0.03807352989833289  1.0000
  O   O4        1.0  0.9390620155132073  0.7070057711463423  0.9619264697807892  1.0000
  O   O5        1.0  0.25436063810156406  0.04813285143889154  0.05738808747914802  1.0000
  O   O6        1.0  0.7456393617985935  0.9518671486100766  0.942611912199974  1.0000
  Cl  Cl1       1.0  0.8979297284280162  0.5419323006782025  0.20003549754209657  1.0000
  Cl  Cl2       1.0  0.1020702714721413  0.4580676993707658  0.7999645021370254  1.0000
  Cl  Cl3       1.0  0.920786603349684  0.09717408974555244  0.2785041068827253  1.0000
  Cl  Cl4       1.0  0.07921339761420289  0.902825910208009  0.7214958934809365  1.0000
  Cl  Cl5       1.0  0.2739913321906574  0.6066321117677285  0.5696958837602967  1.0000
  Cl  Cl6       1.0  0.7260086675270531  0.393367888191248  0.4303041166016561  1.0000
  Cl  Cl7       1.0  0.18279379761548453  0.0785980236783404  0.48976217957747364  1.0000
  Cl  Cl8       1.0  0.8172062022846729  0.9214019763706276  0.5102378201016484  1.0000
