data_image0
_chemical_formula_structural       H32C40N4O6Cl8
_chemical_formula_sum              "H32 C40 N4 O6 Cl8"
_cell_length_a       8.139003248450498
_cell_length_b       8.889331496512574
_cell_length_c       14.812537263824312
_cell_angle_alpha    81.19015876210554
_cell_angle_beta     81.84006561198235
_cell_angle_gamma    69.75725550819222

_space_group_name_H-M_alt    "P 1"
_space_group_IT_number       1

loop_
  _space_group_symop_operation_xyz
  'x, y, z'

loop_
  _atom_site_type_symbol
  _atom_site_label
  _atom_site_symmetry_multiplicity
  _atom_site_fract_x
  _atom_site_fract_y
  _atom_site_fract_z
  _atom_site_occupancy
  H   H1        1.0  0.4581693583680842  0.4339996492466327  0.7381377726662428  1.0000
  H   H2        1.0  0.5418306416237328  0.5660003512081891  0.26186222764462724  1.0000
  H   H3        1.0  0.32091838751812324  0.6438198884982329  0.8602087266179756  1.0000
  H   H4        1.0  0.6790816112441206  0.3561801119603399  0.1397912736910115  1.0000
  H   H5        1.0  0.5079519676485696  0.8341741505735404  0.9008990701823513  1.0000
  H   H6        1.0  0.49204803234324734  0.1658258498812814  0.09910093012851869  1.0000
  H   H7        1.0  0.8301337480339465  0.3467082795300704  0.9263952798846274  1.0000
  H   H8        1.0  0.16986625130860725  0.6532917198600942  0.07360471974039516  1.0000
  H   H9        1.0  0.6343785645930539  0.011211467291007814  0.7113510891665299  1.0000
  H   H10       1.0  0.3656214353987632  0.9887885331638141  0.2886489111443401  1.0000
  H   H11       1.0  0.459123424336365  0.840298867948057  0.6906634120591657  1.0000
  H   H12       1.0  0.5408765756554519  0.15970113250676504  0.3093365882517043  1.0000
  H   H13       1.0  0.9837001338177456  0.21186928236931094  0.7775849700311903  1.0000
  H   H14       1.0  0.016299866174071365  0.788130718085511  0.22241503027967968  1.0000
  H   H15       1.0  0.778910226813708  0.48743604754743647  0.737729130699631  1.0000
  H   H16       1.0  0.22108977362729254  0.512563951707933  0.26227086961359686  1.0000
  H   H17       1.0  0.8246160009863164  0.7493945350493858  0.6860199801351395  1.0000
  H   H18       1.0  0.17538399945468425  0.2506054642059834  0.3139800201780884  1.0000
  H   H19       1.0  0.7683092402452636  0.6998761720252742  0.4078202643975533  1.0000
  H   H20       1.0  0.2316907603268632  0.3001238273611397  0.5921797352293522  1.0000
  H   H21       1.0  0.62152566820757  0.20390435013068994  0.9010723832936383  1.0000
  H   H22       1.0  0.37847433178424694  0.796095650324132  0.09892761701723178  1.0000
  H   H23       1.0  0.3955606392401174  0.319659120453744  0.9100552869636926  1.0000
  H   H24       1.0  0.604439360882826  0.6803408801321222  0.08994471266085495  1.0000
  H   H25       1.0  0.6129967141120499  0.27324769893140993  0.6023852149883072  1.0000
  H   H26       1.0  0.3870032860108935  0.7267523016544564  0.39761478463624017  1.0000
  H   H27       1.0  0.841435244775404  0.1845466470287793  0.6116375675145213  1.0000
  H   H28       1.0  0.15856475534753947  0.8154533535570869  0.3883624321100263  1.0000
  H   H29       1.0  0.8509602802978308  0.6661737581098715  0.9378168547813217  1.0000
  H   H30       1.0  0.14903971846441302  0.3338262423487013  0.06218314552766547  1.0000
  H   H31       1.0  0.15484924288315371  0.8726089755362085  0.9526503359213353  1.0000
  H   H32       1.0  0.8451507575578469  0.1273910237191609  0.04734966439189249  1.0000
  C   C1        1.0  0.5195908469225642  0.3095430171515791  0.7700444170064975  1.0000
  C   C2        1.0  0.4804091532003791  0.6904569834342872  0.22995558261805  1.0000
  C   C3        1.0  0.5232261769836708  0.3145087807618758  0.8727472478462691  1.0000
  C   C4        1.0  0.47677382345732966  0.6854912184934935  0.12725275246695872  1.0000
  C   C5        1.0  0.4538909997888003  0.6132939672908694  0.8784547299717057  1.0000
  C   C6        1.0  0.5461089989734434  0.3867060331677034  0.12154527033728152  1.0000
  C   C7        1.0  0.5473432946535594  0.705169299547111  0.8979084660002271  1.0000
  C   C8        1.0  0.45265670533825775  0.29483070090771085  0.1020915343106429  1.0000
  C   C9        1.0  0.71927142108485  0.45492596816927233  0.9130426117377687  1.0000
  C   C10       1.0  0.28072857812657726  0.5450740310898479  0.08695738857357643  1.0000
  C   C11       1.0  0.4118076386195806  0.20778051419574553  0.7552484194877521  1.0000
  C   C12       1.0  0.5881923601426632  0.7922194862628271  0.24475158082123516  1.0000
  C   C13       1.0  0.49175703388604586  0.055106688176502924  0.725353810376297  1.0000
  C   C14       1.0  0.508242966686081  0.9448933112099108  0.2746461892506084  1.0000
  C   C15       1.0  0.394269800976397  0.9589146295359227  0.7138815992642213  1.0000
  C   C16       1.0  0.6057301991465462  0.041085371049943815  0.28611840036032626  1.0000
  C   C17       1.0  0.21230478828469998  0.015646698894553557  0.7345359568493013  1.0000
  C   C18       1.0  0.787695211707117  0.9843533015602682  0.26546404346156866  1.0000
  C   C19       1.0  0.12630024042313057  0.16825988128522298  0.7633472297978346  1.0000
  C   C20       1.0  0.8736997587882968  0.8317401179738972  0.23665277051351039  1.0000
  C   C21       1.0  0.22764408783895482  0.2627645537016455  0.7725883227236884  1.0000
  C   C22       1.0  0.7723559121528624  0.7372354467531763  0.2274116775871816  1.0000
  C   C23       1.0  0.7470060119667904  0.4432537832514658  0.6038153150133613  1.0000
  C   C24       1.0  0.2529939867954533  0.5567462172071069  0.3961846852956259  1.0000
  C   C25       1.0  0.7752724473927423  0.5340765582965382  0.6654642720934512  1.0000
  C   C26       1.0  0.22472755304825834  0.4659234409588312  0.3345357282197767  1.0000
  C   C27       1.0  0.8004777767187296  0.6819420798636254  0.6368526838111359  1.0000
  C   C28       1.0  0.19952222340421402  0.3180579207222409  0.3631473158134115  1.0000
  C   C29       1.0  0.7953095092387646  0.7416616156648786  0.544295924167596  1.0000
  C   C30       1.0  0.2046904912022359  0.2583383835904907  0.45570407614563196  1.0000
  C   C31       1.0  0.7694505618151877  0.6541045226819379  0.4802146457261518  1.0000
  C   C32       1.0  0.23054943862581298  0.3458954765734316  0.5197853545870761  1.0000
  C   C33       1.0  0.746619792934755  0.5058384466198345  0.5109263828783698  1.0000
  C   C34       1.0  0.2533802071881884  0.4941615539660319  0.48907361674617766  1.0000
  C   C35       1.0  0.7230531518235981  0.28169854392874566  0.6346900979489062  1.0000
  C   C36       1.0  0.2769468487485288  0.7183014554576681  0.36530990167799915  1.0000
  C   C37       1.0  0.88270583269002  0.8643830869950982  0.9671431521533103  1.0000
  C   C38       1.0  0.11729416730179698  0.1356169134597237  0.03285684815755976  1.0000
  C   C39       1.0  0.019383584101815246  0.9339525863820327  0.9786900123311842  1.0000
  C   C40       1.0  0.9806164160211283  0.06604741420383353  0.021309987293363232  1.0000
  N   N1        1.0  0.5646854073323545  0.4545556685689134  0.8888435369526066  1.0000
  N   N2        1.0  0.4353145915610156  0.5454443320207037  0.1111564626700579  1.0000
  N   N3        1.0  0.7123330214124783  0.60467281503224  0.9193060616918747  1.0000
  N   N4        1.0  0.28766697857933865  0.39532718542258183  0.0806939386189954  1.0000
  O   O1        1.0  0.6986004501720994  0.24806462453006514  0.732223511012071  1.0000
  O   O2        1.0  0.3013995504000276  0.7519353748563485  0.26777648861483444  1.0000
  O   O3        1.0  0.9530859599627712  0.7138415692233576  0.9460375909369806  1.0000
  O   O4        1.0  0.04691404002904574  0.28615843123146417  0.053962409373889436  1.0000
  O   O5        1.0  0.7232291687228612  0.939197320585522  0.9774682910756247  1.0000
  O   O6        1.0  0.27677083171813927  0.06080267866984743  0.022531709237603115  1.0000
  Cl  Cl1       1.0  0.12058988152929458  0.4527762309586797  0.8076888037867215  1.0000
  Cl  Cl2       1.0  0.8794101185936488  0.5472237696271867  0.19231119583782605  1.0000
  Cl  Cl3       1.0  0.09052530963824632  0.8937394648855425  0.7251147567199617  1.0000
  Cl  Cl4       1.0  0.909474690484697  0.10626053570032391  0.2748852429045857  1.0000
  Cl  Cl5       1.0  0.7196282736352709  0.39516289020195466  0.4305783711097198  1.0000
  Cl  Cl6       1.0  0.2803717268057295  0.6048371090534147  0.569421629203508  1.0000
  Cl  Cl7       1.0  0.8218817803609088  0.9269244890503877  0.5076056702698195  1.0000
  Cl  Cl8       1.0  0.17811821963090832  0.07307551140443422  0.4923943300410505  1.0000
