data_image0
_chemical_formula_structural       H42C24N12O2Br2
_chemical_formula_sum              "H42 C24 N12 O2 Br2"
_cell_length_a       6.764654393798791
_cell_length_b       9.298816978765215
_cell_length_c       12.376520748102733
_cell_angle_alpha    79.93192010179712
_cell_angle_beta     84.98914468381892
_cell_angle_gamma    83.26158334187485

_space_group_name_H-M_alt    "P 1"
_space_group_IT_number       1

loop_
  _space_group_symop_operation_xyz
  'x, y, z'

loop_
  _atom_site_type_symbol
  _atom_site_label
  _atom_site_symmetry_multiplicity
  _atom_site_fract_x
  _atom_site_fract_y
  _atom_site_fract_z
  _atom_site_occupancy
  H   H1        1.0  0.6632589118668324  0.41647045384102926  0.6786743334406089  1.0000
  H   H2        1.0  0.33674108865985963  0.5835295460063173  0.32132566651302863  1.0000
  H   H3        1.0  0.670367616323264  0.9605448218949199  0.6830565311999572  1.0000
  H   H4        1.0  0.32963238254960425  0.03945517903519912  0.3169434687481832  1.0000
  H   H5        1.0  0.5221402136684732  0.8779671952972163  0.9668316568039141  1.0000
  H   H6        1.0  0.47785978520439504  0.12203280563290272  0.033168343144226446  1.0000
  H   H7        1.0  0.5941648679458795  0.8101037698176606  0.8400343829602734  1.0000
  H   H8        1.0  0.4058351311037649  0.1898962300300499  0.15996561698573789  1.0000
  H   H9        1.0  0.810035046710819  0.09224394369024529  0.527119126596481  1.0000
  H   H10       1.0  0.18996495363909663  0.9077560572395101  0.4728808733592858  1.0000
  H   H11       1.0  0.8405535989294125  0.28167690045343347  0.5191248129131898  1.0000
  H   H12       1.0  0.1594464001202319  0.7183230993942771  0.4808751870328215  1.0000
  H   H13       1.0  0.6050824209552452  0.22745733249680883  0.4975330630768992  1.0000
  H   H14       1.0  0.39491757945622447  0.7725426671650473  0.5024669376992422  1.0000
  H   H15       1.0  0.39525056357079963  0.38472435767267343  0.9539149902485162  1.0000
  H   H16       1.0  0.6047494369558923  0.6152756421746732  0.04608500970512118  1.0000
  H   H17       1.0  0.4962222282874827  0.5086892420873388  0.8407253135771088  1.0000
  H   H18       1.0  0.5037777707621619  0.49131075776037186  0.15927468636890252  1.0000
  H   H19       1.0  0.6548975044254534  0.41087748001793456  0.9410220424817185  1.0000
  H   H20       1.0  0.3451024946241912  0.5891225198297759  0.05897795746429286  1.0000
  H   H21       1.0  0.9720806706931966  0.10826456457031677  0.04481691395347496  1.0000
  H   H22       1.0  0.027919328356447812  0.8917354352773937  0.9551830859925363  1.0000
  H   H23       1.0  0.0026760104069096877  0.29690039222036585  0.027419371135331293  1.0000
  H   H24       1.0  0.9973239886427347  0.7030996076273447  0.9725806288106801  1.0000
  H   H25       1.0  0.22386827001260573  0.17763706251515332  0.5907323697645451  1.0000
  H   H26       1.0  0.7761317305140862  0.8223629373321932  0.40926763018909235  1.0000
  H   H27       1.0  0.03484809633501951  0.5229132568790659  0.6200954539792708  1.0000
  H   H28       1.0  0.9651519027146249  0.4770867429686447  0.3799045459667405  1.0000
  H   H29       1.0  0.25692023131971764  0.43631176155305273  0.559519858825764  1.0000
  H   H30       1.0  0.7430797690917519  0.5636882381088033  0.4404801419503773  1.0000
  H   H31       1.0  0.26572103509911704  0.5266361741143731  0.675494706700133  1.0000
  H   H32       1.0  0.7342789654275749  0.47336382573297353  0.3245052932535045  1.0000
  H   H33       1.0  0.14849507839262677  0.8224901685212936  0.7897762200687443  1.0000
  H   H34       1.0  0.8515049206570178  0.1775098313264169  0.2102237798772669  1.0000
  H   H35       1.0  0.2972560641410437  0.8908291265839118  0.6701831586179889  1.0000
  H   H36       1.0  0.7027439347318245  0.10917087434620736  0.3298168413301516  1.0000
  H   H37       1.0  0.03499264906957932  0.8971599034180239  0.6661862159579193  1.0000
  H   H38       1.0  0.9650073512803363  0.10284009751173127  0.3338137839978475  1.0000
  H   H39       1.0  0.12405678722527205  0.36175775776746283  0.1928511141582495  1.0000
  H   H40       1.0  0.8759432133014199  0.6382422420798839  0.8071488857953879  1.0000
  H   H41       1.0  0.9977385167391157  0.5049002147010844  0.14115813916673522  1.0000
  H   H42       1.0  0.0022614837875761587  0.4950997851462622  0.8588418607869024  1.0000
  C   C1        1.0  0.5853070023869664  0.031053323040044097  0.8315064058829639  1.0000
  C   C2        1.0  0.41469299666267806  0.9689466768076663  0.16849359406304737  1.0000
  C   C3        1.0  0.5715671241414513  0.2804637727670383  0.8318691209044723  1.0000
  C   C4        1.0  0.42843287638524075  0.7195362270803083  0.16813087904916513  1.0000
  C   C5        1.0  0.6415649750708362  0.30573442560047664  0.7204460375733974  1.0000
  C   C6        1.0  0.35843502545585576  0.69426557424687  0.27955396238024016  1.0000
  C   C7        1.0  0.6775039645493454  0.1878788315829222  0.6649337785940753  1.0000
  C   C8        1.0  0.32249603597734644  0.8121211682644244  0.33506622135956216  1.0000
  C   C9        1.0  0.7379992006983763  0.19769028604575375  0.5459078680618905  1.0000
  C   C10       1.0  0.2620007998283156  0.802309713801593  0.4540921318917469  1.0000
  C   C11       1.0  0.5247704252008328  0.40345295767072514  0.8954128010761068  1.0000
  C   C12       1.0  0.4752295753258591  0.5965470421766216  0.10458719887753075  1.0000
  C   C13       1.0  0.04736929661411978  0.2006677313268254  0.8870878252058986  1.0000
  C   C14       1.0  0.9526307023203023  0.7993322683353945  0.1129121755626166  1.0000
  C   C15       1.0  0.12978840925036192  0.05806041416635525  0.7511375887582685  1.0000
  C   C16       1.0  0.8702115897992826  0.9419395856813555  0.24886241118774277  1.0000
  C   C17       1.0  0.17255452526853277  0.1836569575300891  0.6759948152435366  1.0000
  C   C18       1.0  0.8274454752581591  0.8163430423172576  0.3240051847101011  1.0000
  C   C19       1.0  0.14558077548380904  0.3181903712651239  0.7135424980366425  1.0000
  C   C20       1.0  0.854419225042883  0.6818096285822228  0.2864575019169949  1.0000
  C   C21       1.0  0.17938484885360786  0.458368928530452  0.6374540424382708  1.0000
  C   C22       1.0  0.8206151515578616  0.5416310711314041  0.36254595833787057  1.0000
  C   C23       1.0  0.15452386051826147  0.9094650651005943  0.7179206487593146  1.0000
  C   C24       1.0  0.845476138531383  0.0905349347471161  0.2820793511866967  1.0000
  N   N1        1.0  0.6472472182994415  0.0529133088019365  0.7220685264088769  1.0000
  N   N2        1.0  0.3527527807502029  0.9470866910457743  0.27793147353713443  1.0000
  N   N3        1.0  0.5626310382134703  0.8955057289346565  0.8826002203703951  1.0000
  N   N4        1.0  0.4373689623132218  0.10449427091269015  0.11739977958324235  1.0000
  N   N5        1.0  0.5455535422460295  0.1453344605681766  0.8860637944925897  1.0000
  N   N6        1.0  0.45444645680361495  0.8546655392795339  0.11393620545342156  1.0000
  N   N7        1.0  0.08472960642639801  0.3272100809405366  0.8187226401404153  1.0000
  N   N8        1.0  0.915270394100294  0.6727899189068101  0.18127735981322216  1.0000
  N   N9        1.0  0.9864640141049816  0.20675627276507863  0.9922885490477625  1.0000
  N   N10       1.0  0.013535984767886672  0.7932437281650404  0.007711450900377973  1.0000
  N   N11       1.0  0.06527149627530053  0.06627092091283551  0.8554448233689463  1.0000
  N   N12       1.0  0.9347285042513914  0.9337290789345112  0.14455517658469105  1.0000
  O   O1        1.0  0.063038607324122  0.4075651935874515  0.12436948494879431  1.0000
  O   O2        1.0  0.93696139320257  0.5924348062598952  0.8756305150048431  1.0000
  Br  Br1       1.0  0.3070534544525928  0.26607398843338714  0.35631853770975297  1.0000
  Br  Br2       1.0  0.6929465458973227  0.7339260124963682  0.6436814622460137  1.0000
