data_image0
_chemical_formula_structural       H30C32N4O10
_chemical_formula_sum              "H30 C32 N4 O10"
_cell_length_a       7.84901850851723
_cell_length_b       9.789358427895298
_cell_length_c       10.232693606458513
_cell_angle_alpha    84.89051690328834
_cell_angle_beta     71.378646039952
_cell_angle_gamma    73.20033689941826

_space_group_name_H-M_alt    "P 1"
_space_group_IT_number       1

loop_
  _space_group_symop_operation_xyz
  'x, y, z'

loop_
  _atom_site_type_symbol
  _atom_site_label
  _atom_site_symmetry_multiplicity
  _atom_site_fract_x
  _atom_site_fract_y
  _atom_site_fract_z
  _atom_site_occupancy
  H   H1        1.0  0.38299130476194726  0.8189184657036551  0.43423970459627953  1.0000
  H   H2        1.0  0.6170086963997431  0.18108153454954226  0.5657602956438759  1.0000
  H   H3        1.0  0.7685450727417787  0.5035580180800825  0.39200483078333287  1.0000
  H   H4        1.0  0.23145492706872275  0.49644198216784957  0.6079951688173116  1.0000
  H   H5        1.0  0.6777607932963267  0.5114479364659255  0.571780872165747  1.0000
  H   H6        1.0  0.32223920652231686  0.4885520637835622  0.4282191284100091  1.0000
  H   H7        1.0  0.9151131444108537  0.6443229147029588  0.5746479915676164  1.0000
  H   H8        1.0  0.08488685539964777  0.35567708554497335  0.4253520080330281  1.0000
  H   H9        1.0  0.20136278327134957  0.7670460133913449  0.28472021371738354  1.0000
  H   H10       1.0  0.7986372165472938  0.23295398685814275  0.7152797868583722  1.0000
  H   H11       1.0  0.9094238888155725  0.1907758682115088  0.3925290128920986  1.0000
  H   H12       1.0  0.09057611100307104  0.8092241320379787  0.6074709876836574  1.0000
  H   H13       1.0  0.787648506245897  0.37226984584756634  0.23047215892072478  1.0000
  H   H14       1.0  0.21235149396361008  0.6277301533348639  0.7695278416516136  1.0000
  H   H15       1.0  0.9372966389931517  0.32912183774487314  0.9735045311600918  1.0000
  H   H16       1.0  0.062703362168539  0.6708781625083241  0.026495469080063606  1.0000
  H   H17       1.0  0.1716185119795168  0.17590325815393185  0.7842690089614986  1.0000
  H   H18       1.0  0.8283814878391267  0.8240967420955557  0.21573099161425713  1.0000
  H   H19       1.0  0.4326670506249402  0.9573522073060787  0.704141927628188  1.0000
  H   H20       1.0  0.5673329491937031  0.04264779294340897  0.29585807294756816  1.0000
  H   H21       1.0  0.6396823860578544  0.730289785127552  0.7608034165241445  1.0000
  H   H22       1.0  0.36031761414351066  0.26971021405332285  0.23919658307308223  1.0000
  H   H23       1.0  0.7156360160224321  0.5493840089864273  0.9372201879102043  1.0000
  H   H24       1.0  0.28436398378806954  0.4506159912615049  0.06277981169044011  1.0000
  H   H25       1.0  0.5109362092673586  0.5936445702482109  0.18568158411253652  1.0000
  H   H26       1.0  0.48906379055128496  0.4063554300012767  0.8143184164632196  1.0000
  H   H27       1.0  0.288242874998577  0.03339640406311258  0.46426564153266164  1.0000
  H   H28       1.0  0.7117571248200666  0.9666035961863749  0.5357343590430943  1.0000
  H   H29       1.0  0.19630579474947402  0.9807637451249172  0.364313394370678  1.0000
  H   H30       1.0  0.8036942050691696  0.019236255124570462  0.6356866062050781  1.0000
  C   C1        1.0  0.6170864475210202  0.7126652300331096  0.4738084699192611  1.0000
  C   C2        1.0  0.3829135522894813  0.2873347702148227  0.5261915296813833  1.0000
  C   C3        1.0  0.7485539714905799  0.566855918859462  0.48162102358652775  1.0000
  C   C4        1.0  0.2514460283280635  0.4331440813900257  0.5183789769892283  1.0000
  C   C5        1.0  0.9368600575741454  0.5744772312969173  0.489195888324855  1.0000
  C   C6        1.0  0.06313994263536173  0.42552276788551296  0.5108041122474833  1.0000
  C   C7        1.0  0.041259916984177185  0.636152879223661  0.35597153266338755  1.0000
  C   C8        1.0  0.9587400832171881  0.36384711995721375  0.6440284669338393  1.0000
  C   C9        1.0  0.9655215669306658  0.1748053586047335  0.2811549948223596  1.0000
  C   C10       1.0  0.034478432887977736  0.8251946416447542  0.7188450057533963  1.0000
  C   C11       1.0  0.8993726688833208  0.27623616776220367  0.18970970373523757  1.0000
  C   C12       1.0  0.1006273326692333  0.7237638314239363  0.8102902965015002  1.0000
  C   C13       1.0  0.9799644447378595  0.2530414906665827  0.04948536297845485  1.0000
  C   C14       1.0  0.020035555080784122  0.7469585095829049  0.950514637597301  1.0000
  C   C15       1.0  0.12333400628203917  0.12630383838850567  0.0016305082273806706  1.0000
  C   C16       1.0  0.8766659939274679  0.8736961607939246  0.9983694923449576  1.0000
  C   C17       1.0  0.2166241628408511  0.09789258011452633  0.857780709401693  1.0000
  C   C18       1.0  0.7833758373605141  0.9021074190663485  0.14221929019553378  1.0000
  C   C19       1.0  0.3597902801334332  0.9775025143330408  0.8137589853931059  1.0000
  C   C20       1.0  0.640209719677068  0.022497485914891417  0.1862410142075387  1.0000
  C   C21       1.0  0.41422678376691224  0.8734576206815531  0.9109071318539371  1.0000
  C   C22       1.0  0.5857732160435893  0.12654237956637893  0.0890928677467074  1.0000
  C   C23       1.0  0.5606474074839441  0.7469113556131006  0.869871002011999  1.0000
  C   C24       1.0  0.43935259271742083  0.2530886435677743  0.13012899758522778  1.0000
  C   C25       1.0  0.6021208444388274  0.6468480412644037  0.9673956005631891  1.0000
  C   C26       1.0  0.39787915537981605  0.35315195898508406  0.03260440001256687  1.0000
  C   C27       1.0  0.4902883083226758  0.6722003145087665  0.10538785358728718  1.0000
  C   C28       1.0  0.5097116914878257  0.32779968573916574  0.8946121460133573  1.0000
  C   C29       1.0  0.31679262618642917  0.8938704025946113  0.054472486361389516  1.0000
  C   C30       1.0  0.6832073736322141  0.10612959765487627  0.9455275142143665  1.0000
  C   C31       1.0  0.1752770208895736  0.02653803582292417  0.10156753239742593  1.0000
  C   C32       1.0  0.8247229789290698  0.9734619644265635  0.8984324681783301  1.0000
  N   N1        1.0  0.09897849109502924  0.05370912132240285  0.238813987847588  1.0000
  N   N2        1.0  0.9010215087154724  0.9462908789255293  0.7611860117530564  1.0000
  N   N3        1.0  0.3522622580770443  0.7906450460365232  0.14760240884599551  1.0000
  N   N4        1.0  0.6477377417334572  0.209354954211409  0.8523975907546489  1.0000
  O   O1        1.0  0.47460468381307885  0.7109951535444958  0.4338958424969049  1.0000
  O   O2        1.0  0.5253953160055648  0.28900484670499177  0.5661041580788511  1.0000
  O   O3        1.0  0.6427393696447983  0.8233231096458921  0.5047616176473774  1.0000
  O   O4        1.0  0.35726063151689225  0.17667689060730524  0.49523838259277814  1.0000
  O   O5        1.0  0.05748653448376038  0.5928313950751014  0.24143774145056277  1.0000
  O   O6        1.0  0.9425134653267411  0.40716860517283066  0.7585622581500815  1.0000
  O   O7        1.0  0.11472542330787446  0.7345808404204849  0.3769266400596829  1.0000
  O   O8        1.0  0.8852745765107691  0.26541915982900266  0.6230733605160731  1.0000
  O   O9        1.0  0.25316163441919276  0.9516008187959695  0.44205137360709107  1.0000
  O   O10       1.0  0.7468383667343559  0.048399181455672347  0.5579486256579527  1.0000
