data_image0
_chemical_formula_structural       H56C20N10O22S2Cl2
_chemical_formula_sum              "H56 C20 N10 O22 S2 Cl2"
_cell_length_a       13.782639501861748
_cell_length_b       9.461324847060187
_cell_length_c       9.194224560720414
_cell_angle_alpha    90.0
_cell_angle_beta     125.75582010292511
_cell_angle_gamma    90.0

_space_group_name_H-M_alt    "P 1"
_space_group_IT_number       1

loop_
  _space_group_symop_operation_xyz
  'x, y, z'

loop_
  _atom_site_type_symbol
  _atom_site_label
  _atom_site_symmetry_multiplicity
  _atom_site_fract_x
  _atom_site_fract_y
  _atom_site_fract_z
  _atom_site_occupancy
  H   H1        1.0  0.5009584760931072  0.6210694902655022  0.15249548390563208  1.0000
  H   H2        1.0  0.4990415235751965  0.6210694902655022  0.847504515764  1.0000
  H   H3        1.0  0.0009584765434216128  0.12106948958167543  0.15249548410250224  1.0000
  H   H4        1.0  0.9990415238538154  0.12106948958167543  0.8475045155758479  1.0000
  H   H5        1.0  0.6676041719039747  0.9129109357960359  0.4464668808362623  1.0000
  H   H6        1.0  0.33239582776432897  0.9129109357960359  0.5535331188333699  1.0000
  H   H7        1.0  0.1676041723542891  0.4129109361691435  0.4464668810331324  1.0000
  H   H8        1.0  0.832395828042948  0.4129109361691435  0.5535331186452178  1.0000
  H   H9        1.0  0.8697253219265968  0.7606958683208414  0.49226039289331697  1.0000
  H   H10       1.0  0.13027467774170692  0.7606958683208414  0.5077396067763151  1.0000
  H   H11       1.0  0.3697253216479778  0.26069586763701463  0.49226039308146896  1.0000
  H   H12       1.0  0.6302746780203259  0.26069586763701463  0.5077396065881631  1.0000
  H   H13       1.0  0.8591984066885595  0.8395326435143033  0.6466946370255305  1.0000
  H   H14       1.0  0.1408015929797442  0.8395326435143033  0.3533053626441016  1.0000
  H   H15       1.0  0.3591984071388739  0.33953264388741106  0.6466946372224007  1.0000
  H   H16       1.0  0.6408015925294298  0.33953264388741106  0.35330536244723143  1.0000
  H   H17       1.0  0.8835204069408885  0.9348971262463759  0.5132554319172067  1.0000
  H   H18       1.0  0.11647959272741513  0.9348971262463759  0.4867445677524254  1.0000
  H   H19       1.0  0.383520407391203  0.43489712661948354  0.5132554321140769  1.0000
  H   H20       1.0  0.6164795927948036  0.43489712661948354  0.4867445688957852  1.0000
  H   H21       1.0  0.721032951263635  0.06722265541887848  0.2866788882308903  1.0000
  H   H22       1.0  0.27896704840466857  0.06722265541887848  0.7133211114387418  1.0000
  H   H23       1.0  0.22103295171394954  0.5672226550457707  0.28667888842776057  1.0000
  H   H24       1.0  0.7789670479543541  0.5672226550457707  0.7133211112418715  1.0000
  H   H25       1.0  0.5805860583927474  0.9865561632100911  0.14555655144003946  1.0000
  H   H26       1.0  0.4194139425221926  0.9865561632100911  0.8544434495785408  1.0000
  H   H27       1.0  0.08058605811412832  0.4865561635831988  0.1455565516281915  1.0000
  H   H28       1.0  0.9194139420718781  0.4865561635831988  0.8544434493816706  1.0000
  H   H29       1.0  0.8090087921406599  0.8917432300849029  0.18611685602731565  1.0000
  H   H30       1.0  0.19099120752764376  0.8917432300849029  0.8138831436423164  1.0000
  H   H31       1.0  0.3090087918620409  0.3917432294010761  0.18611685621546772  1.0000
  H   H32       1.0  0.6909912078062628  0.3917432294010761  0.8138831434541643  1.0000
  H   H33       1.0  0.666953847881168  0.8077196686016489  0.04849172630198768  1.0000
  H   H34       1.0  0.3330461517871357  0.8077196686016489  0.9515082733676444  1.0000
  H   H35       1.0  0.1669538483314824  0.30771966897475656  0.04849172649885786  1.0000
  H   H36       1.0  0.8330461513368211  0.30771966897475656  0.9515082731707742  1.0000
  H   H37       1.0  0.5782252115567154  0.04089663194687037  0.8844894169461491  1.0000
  H   H38       1.0  0.4217747881115882  0.04089663194687037  0.11551058272348289  1.0000
  H   H39       1.0  0.0782252120070298  0.5408966326306971  0.8844894171430193  1.0000
  H   H40       1.0  0.92177478890791  0.5408966326306971  0.11551058387556089  1.0000
  H   H41       1.0  0.723575166612701  0.11401012516076632  0.014444223897794211  1.0000
  H   H42       1.0  0.2764248335733055  0.11401012516076632  0.9855557771120679  1.0000
  H   H43       1.0  0.22357516581637918  0.6140101247876587  0.014444222745716223  1.0000
  H   H44       1.0  0.7764248338519244  0.6140101247876587  0.9855557769239158  1.0000
  H   H45       1.0  0.6550410335592817  0.03095559181555886  0.7186562907240663  1.0000
  H   H46       1.0  0.3449589661090221  0.03095559181555886  0.2813437089455658  1.0000
  H   H47       1.0  0.15504103328066263  0.5309555914424512  0.7186562909122184  1.0000
  H   H48       1.0  0.8449589669053439  0.5309555914424512  0.2813437100976438  1.0000
  H   H49       1.0  0.6539595380359948  0.8654260795774487  0.7711241561914722  1.0000
  H   H50       1.0  0.34604046236124225  0.8654260795774487  0.2288758434868779  1.0000
  H   H51       1.0  0.15395953775737573  0.36542607889362183  0.7711241563796243  1.0000
  H   H52       1.0  0.8460404619109277  0.36542607889362183  0.2288758432900077  1.0000
  H   H53       1.0  0.7859159803666675  0.9543072895129994  0.8883379061054564  1.0000
  H   H54       1.0  0.21408401930163612  0.9543072895129994  0.11166209356417557  1.0000
  H   H55       1.0  0.28591598081698194  0.45430728988610714  0.8883379063023266  1.0000
  H   H56       1.0  0.7140840193690245  0.45430728988610714  0.11166209470753544  1.0000
  C   C1        1.0  0.6504715879933146  0.7206089316464445  0.3110854732855426  1.0000
  C   C2        1.0  0.349528411674989  0.7206089316464445  0.6889145263840895  1.0000
  C   C3        1.0  0.150471588443629  0.22060893096261772  0.3110854734824128  1.0000
  C   C4        1.0  0.8495284124713108  0.22060893096261772  0.6889145275361674  1.0000
  C   C5        1.0  0.7049898078163619  0.8666862085966636  0.3796704673293552  1.0000
  C   C6        1.0  0.2950101918519418  0.8666862085966636  0.6203295323402768  1.0000
  C   C7        1.0  0.2049898082666763  0.3666862079128368  0.3796704675262254  1.0000
  C   C8        1.0  0.7950101921305607  0.3666862079128368  0.6203295321521247  1.0000
  C   C9        1.0  0.6769711616455296  0.96538747772074  0.22771036961010147  1.0000
  C   C10       1.0  0.32302883875170757  0.96538747772074  0.7722896300682488  1.0000
  C   C11       1.0  0.17697116136691055  0.4653874780938478  0.22771036979825354  1.0000
  C   C12       1.0  0.823028838301393  0.4653874780938478  0.7722896298713785  1.0000
  C   C13       1.0  0.7119231037032975  0.9092237629567225  0.10847364541139258  1.0000
  C   C14       1.0  0.2880768959650062  0.9092237629567225  0.8915263542582395  1.0000
  C   C15       1.0  0.21192310415361187  0.40922376332983024  0.10847364560826274  1.0000
  C   C16       1.0  0.7880768962436251  0.40922376332983024  0.8915263540700873  1.0000
  C   C17       1.0  0.6734906640889218  0.01484145215071345  0.959245727355275  1.0000
  C   C18       1.0  0.32650933630831525  0.01484145215071345  0.04075427232307508  1.0000
  C   C19       1.0  0.17349066381030284  0.5148414528345402  0.9592457275434271  1.0000
  C   C20       1.0  0.8265093363757037  0.5148414528345402  0.040754273466434954  1.0000
  N   N1        1.0  0.8361918889769994  0.8506041955108029  0.515635108251071  1.0000
  N   N2        1.0  0.1638081106913043  0.8506041955108029  0.4843648914185612  1.0000
  N   N3        1.0  0.3361918894273138  0.3506041958839106  0.515635108447941  1.0000
  N   N4        1.0  0.6638081114876262  0.3506041958839106  0.4843648925706392  1.0000
  N   N5        1.0  0.6944835876604392  0.9618625612276378  0.8277181293555768  1.0000
  N   N6        1.0  0.3055164132545007  0.9618625612276378  0.17228187166300343  1.0000
  N   N7        1.0  0.19448358686411735  0.4618625616007455  0.8277181282034988  1.0000
  N   N8        1.0  0.8055164128041863  0.4618625616007455  0.17228187146613325  1.0000
  N   N9        1.0  0.9999999999199995  0.16053059318346205  0.5000000000273271  1.0000
  N   N10       1.0  0.5000000001986186  0.6605305928103543  0.4999999998391751  1.0000
  O   O1        1.0  0.711903307571379  0.6135749066689953  0.34966584250858146  1.0000
  O   O2        1.0  0.288096693343561  0.6135749066689953  0.6503341585099988  1.0000
  O   O3        1.0  0.2119033067750571  0.11357490598516858  0.34966584135650347  1.0000
  O   O4        1.0  0.7880966928932465  0.11357490598516858  0.6503341583131286  1.0000
  O   O5        1.0  0.5321674785748285  0.722572057350322  0.20349741076629102  1.0000
  O   O6        1.0  0.46783252161117816  0.722572057350322  0.7965025902435712  1.0000
  O   O7        1.0  0.032167479025142824  0.22257205772342975  0.2034974109631612  1.0000
  O   O8        1.0  0.9678325218897972  0.22257205772342975  0.7965025900554191  1.0000
  O   O9        1.0  0.9999999999199995  0.025302456460353385  0.5000000000273271  1.0000
  O   O10       1.0  0.5000000001986186  0.5253024571441801  0.4999999998391751  1.0000
  O   O11       1.0  0.9015009186087651  0.22544789175722835  0.4085935661257161  1.0000
  O   O12       1.0  0.0984990815772414  0.22544789175722835  0.5914064348841459  1.0000
  O   O13       1.0  0.40150091833014606  0.7254478924410551  0.4085935663138682  1.0000
  O   O14       1.0  0.5984990818558604  0.7254478924410551  0.5914064346959939  1.0000
  O   O15       1.0  0.5969412806113971  0.2993251617272142  0.14631820057236639  1.0000
  O   O16       1.0  0.4030587195746095  0.2993251617272142  0.8536818004374956  1.0000
  O   O17       1.0  0.09694127981507514  0.7993251613541065  0.14631819942028843  1.0000
  O   O18       1.0  0.9030587198532286  0.7993251613541065  0.8536818002493436  1.0000
  O   O19       1.0  0.4458888919466537  0.480412713174342  0.06890361694373243  1.0000
  O   O20       1.0  0.55411110772165  0.480412713174342  0.9310963827258997  1.0000
  O   O21       1.0  0.9458888922252728  0.9804127128012343  0.06890361675558036  1.0000
  O   O22       1.0  0.05411110744303094  0.9804127128012343  0.9310963829140517  1.0000
  S   S1        1.0  0.5000000002786189  0.3871384546254233  0.999999999811848  1.0000
  S   S2        1.0  0.0  0.88713845530925  0.0  1.0000
  Cl  Cl1       1.0  0.5000000001986186  0.13357685318168638  0.4999999998391751  1.0000
  Cl  Cl2       1.0  0.9999999999199995  0.6335768528085787  0.5000000000273271  1.0000
