data_image0
_chemical_formula_structural       H40C78N4O14F32I8
_chemical_formula_sum              "H40 C78 N4 O14 F32 I8"
_cell_length_a       7.922498999464755
_cell_length_b       13.209695121867721
_cell_length_c       21.564308378828738
_cell_angle_alpha    76.8729274505389
_cell_angle_beta     82.47763582581118
_cell_angle_gamma    89.3002478488797

_space_group_name_H-M_alt    "P 1"
_space_group_IT_number       1

loop_
  _space_group_symop_operation_xyz
  'x, y, z'

loop_
  _atom_site_type_symbol
  _atom_site_label
  _atom_site_symmetry_multiplicity
  _atom_site_fract_x
  _atom_site_fract_y
  _atom_site_fract_z
  _atom_site_occupancy
  H   H1        1.0  0.07547854924901037  0.3704793240247242  0.9939511091312992  1.0000
  H   H2        1.0  0.9245214505094844  0.629520676058704  0.006048891290419658  1.0000
  H   H3        1.0  0.27605774975469227  0.3936217567877296  0.942682040530125  1.0000
  H   H4        1.0  0.7239422501737297  0.6063782434759569  0.05731795941125057  1.0000
  H   H5        1.0  0.44712959580507994  0.12630884533654207  0.004863394717345484  1.0000
  H   H6        1.0  0.5528704039648729  0.873691153990618  0.995136605702214  1.0000
  H   H7        1.0  0.3462190120613597  0.16707793725951317  0.9336144499303898  1.0000
  H   H8        1.0  0.6537809878670625  0.8329220630041734  0.0663855500109858  1.0000
  H   H9        1.0  0.42007737078734436  0.3496478240602773  0.0386181906098787  1.0000
  H   H10       1.0  0.5799226304030316  0.6503521762002386  0.9613818093324157  1.0000
  H   H11       1.0  0.22257099423889035  0.31860058965138727  0.09080744369078143  1.0000
  H   H12       1.0  0.7774290056895318  0.6813994106122995  0.9091925562505941  1.0000
  H   H13       1.0  0.06856792196016914  0.12694695213718654  0.003730621908900232  1.0000
  H   H14       1.0  0.9314320779682528  0.8730530481265001  0.9962693780324753  1.0000
  H   H15       1.0  0.17237971991679701  0.09569318629730066  0.07475166203395078  1.0000
  H   H16       1.0  0.8276202800230829  0.9043068132101176  0.9252483379052655  1.0000
  H   H17       1.0  0.9710382711427562  0.8770748093731501  0.6183099188473046  1.0000
  H   H18       1.0  0.028961728785665882  0.12292519089053652  0.3816900810940711  1.0000
  H   H19       1.0  0.13034184913004143  0.04803638831538723  0.6016885330604068  1.0000
  H   H20       1.0  0.8696581506399114  0.9519636110117727  0.39831146735915274  1.0000
  H   H21       1.0  0.34724015126651325  0.10260602188987344  0.5042770194737727  1.0000
  H   H22       1.0  0.6527598486733669  0.897393977617545  0.4957229804654435  1.0000
  H   H23       1.0  0.3919385750345134  0.9862012892038658  0.4260010879282646  1.0000
  H   H24       1.0  0.6080614248939086  0.013798711059820772  0.573998912013111  1.0000
  H   H25       1.0  0.21575317094517046  0.8210440338247711  0.4485669777446201  1.0000
  H   H26       1.0  0.7842468289947095  0.17895596568264713  0.5514330221945961  1.0000
  H   H27       1.0  0.7213055435339033  0.34907072990471927  0.44802954628971  1.0000
  H   H28       1.0  0.27869445639451873  0.6509292703589673  0.5519704536516655  1.0000
  H   H29       1.0  0.8846026960334363  0.5027179278946811  0.4602034138346654  1.0000
  H   H30       1.0  0.11539730372505848  0.49728207218874737  0.5397965865870534  1.0000
  H   H31       1.0  0.7990082519771093  0.578856641771387  0.5569658081698107  1.0000
  H   H32       1.0  0.20099174795131278  0.4211433584922996  0.44303419177156483  1.0000
  H   H33       1.0  0.5506108875670064  0.49567994269648413  0.6364409265524648  1.0000
  H   H34       1.0  0.4493891123614157  0.5043200575672022  0.36355907338891086  1.0000
  H   H35       1.0  0.398723275833218  0.3426662888082652  0.6166645888652684  1.0000
  H   H36       1.0  0.601276725187231  0.6573337112719925  0.38333541155736917  1.0000
  H   H37       1.0  0.07839097503878766  0.2537773349301694  0.5229376722778114  1.0000
  H   H38       1.0  0.9216090248896346  0.746222665333517  0.4770623276635641  1.0000
  H   H39       1.0  0.2522707625384947  0.2562203278590029  0.5518956936056673  1.0000
  H   H40       1.0  0.7477292386518816  0.7437796724015129  0.44810430633662707  1.0000
  C   C1        1.0  0.25335014726876204  0.2434558700589886  0.010342049917580405  1.0000
  C   C2        1.0  0.7466498526596601  0.7565441302046979  0.9896579500237952  1.0000
  C   C3        1.0  0.17648268446233686  0.3351069988941444  0.9662296034341656  1.0000
  C   C4        1.0  0.823517315477543  0.6648930006132738  0.033770396505050586  1.0000
  C   C5        1.0  0.07808698165779805  0.3707869720923265  0.8642197251141382  1.0000
  C   C6        1.0  0.921913018270624  0.62921302817136  0.13578027482723723  1.0000
  C   C7        1.0  0.16582355238498644  0.36636725734517706  0.8040711509764359  1.0000
  C   C8        1.0  0.8341764475434355  0.6336327429185096  0.19592884896493976  1.0000
  C   C9        1.0  0.14223089659744703  0.4406858563295242  0.7489692940035022  1.0000
  C   C10       1.0  0.8577691033309751  0.5593141439341625  0.2510307059378733  1.0000
  C   C11       1.0  0.026816690306982867  0.5207348850432737  0.7507727382780922  1.0000
  C   C12       1.0  0.9731833096214392  0.4792651152204129  0.24922726166328343  1.0000
  C   C13       1.0  0.9369308714127786  0.5242314132955375  0.8102411461453258  1.0000
  C   C14       1.0  0.06306912852710138  0.47576858621188084  0.18975885379389046  1.0000
  C   C15       1.0  0.9623662865928225  0.45161909714012494  0.866054308414224  1.0000
  C   C16       1.0  0.037633713335599596  0.5483809031235615  0.13394569152715155  1.0000
  C   C17       1.0  0.3951580326685745  0.19277864638864717  0.9728774134520589  1.0000
  C   C18       1.0  0.6048419672598476  0.8072213538750393  0.027122586489316612  1.0000
  C   C19       1.0  0.6193057023529607  0.261734743923314  0.8895382731540709  1.0000
  C   C20       1.0  0.38069429757546136  0.7382652563403728  0.11046172678730459  1.0000
  C   C21       1.0  0.6164259953906641  0.342752734557117  0.8351228850735629  1.0000
  C   C22       1.0  0.38357400453775803  0.6572472657065696  0.16487711486781265  1.0000
  C   C23       1.0  0.705785309668599  0.3367559282349427  0.7761556608695308  1.0000
  C   C24       1.0  0.2942146900898959  0.6632440718484858  0.22384433955218805  1.0000
  C   C25       1.0  0.8045526535740517  0.25118910561620705  0.7685678652529765  1.0000
  C   C26       1.0  0.19544734635437017  0.7488108946474794  0.23143213468839902  1.0000
  C   C27       1.0  0.8111956623318225  0.1717711018785422  0.823230833470456  1.0000
  C   C28       1.0  0.1888043375965996  0.8282288983851444  0.17676916647091956  1.0000
  C   C29       1.0  0.7194811366096773  0.1759471754437572  0.8822594424840506  1.0000
  C   C30       1.0  0.28051886316027563  0.824052823883403  0.11774055793550879  1.0000
  C   C31       1.0  0.32525201200315984  0.28794005398854117  0.06132957588572956  1.0000
  C   C32       1.0  0.6747479879252622  0.7120599462751452  0.9386704240556462  1.0000
  C   C33       1.0  0.42551898459270454  0.21898369353146854  0.16146004456826896  1.0000
  C   C34       1.0  0.5744810151657903  0.7810163065519597  0.83853995585345  1.0000
  C   C35       1.0  0.34314627896473193  0.1505489744596953  0.21611186781600764  1.0000
  C   C36       1.0  0.6568537220671747  0.8494510248642942  0.7838881326044705  1.0000
  C   C37       1.0  0.35916108756849613  0.16236840475313008  0.2774998554497329  1.0000
  C   C38       1.0  0.64083891362188  0.8376315955073858  0.7225001444925614  1.0000
  C   C39       1.0  0.4583190102720766  0.24208567655572255  0.28756702873448586  1.0000
  C   C40       1.0  0.5416809896563454  0.7579143237079641  0.7124329712068896  1.0000
  C   C41       1.0  0.5405682114426376  0.3105113384156223  0.2332003368449484  1.0000
  C   C42       1.0  0.4594317883273153  0.6894886609115378  0.766799663574611  1.0000
  C   C43       1.0  0.5263418967244385  0.2989282430104742  0.17136068959115827  1.0000
  C   C44       1.0  0.47365810320398355  0.7010717572532122  0.8286393103502174  1.0000
  C   C45       1.0  0.11814952438582194  0.15849852919883894  0.04084671949549881  1.0000
  C   C46       1.0  0.8818504768045541  0.8415014710616769  0.9591532804467956  1.0000
  C   C47       1.0  0.886158519216706  0.13708823080343205  0.12485897970147562  1.0000
  C   C48       1.0  0.11384148071171611  0.8629117694602545  0.8751410202398999  1.0000
  C   C49       1.0  0.8797094892421397  0.15148337963733619  0.18751322749034216  1.0000
  C   C50       1.0  0.12029051068628242  0.8485166206263504  0.8124867724510334  1.0000
  C   C51       1.0  0.7887063692014571  0.08335390188669557  0.23953972841899243  1.0000
  C   C52       1.0  0.21129363073842292  0.9166460976207228  0.7604602715202237  1.0000
  C   C53       1.0  0.6965759534619282  0.9991634013374942  0.23123092101758042  1.0000
  C   C54       1.0  0.3034240464664938  0.0008365989261925046  0.7687690789237952  1.0000
  C   C55       1.0  0.6978980331081064  0.9863880383426885  0.16870082030120012  1.0000
  C   C56       1.0  0.3021019668203156  0.013611961920997912  0.8312991796401754  1.0000
  C   C57       1.0  0.7918542622473074  0.053084796231187524  0.11662212626703015  1.0000
  C   C58       1.0  0.2081457376925726  0.9469152032762308  0.883377873672186  1.0000
  C   C59       1.0  0.06581594527171138  0.9067945016528404  0.5773182411294892  1.0000
  C   C60       1.0  0.9341840546681686  0.09320549785457781  0.422681758809727  1.0000
  C   C61       1.0  0.15565672081526466  0.9994643554253507  0.5670937333972504  1.0000
  C   C62       1.0  0.8443432789546881  0.0005356439018094544  0.43290626702230905  1.0000
  C   C63       1.0  0.27548708326306354  0.03004182192134814  0.5127118085792569  1.0000
  C   C64       1.0  0.7245129166768164  0.9699581775860701  0.48728819135995927  1.0000
  C   C65       1.0  0.30044624436332135  0.9657843073213976  0.46932689945978084  1.0000
  C   C66       1.0  0.6995537555651008  0.03421569294228894  0.5306731004815948  1.0000
  C   C67       1.0  0.20680172128292976  0.8742747060827438  0.48046046448883717  1.0000
  C   C68       1.0  0.7931982786454924  0.12572529418094264  0.5195395354525384  1.0000
  C   C69       1.0  0.6915578312246389  0.38487208801318235  0.48867591614400513  1.0000
  C   C70       1.0  0.3084421687037831  0.615127912250504  0.5113240837973705  1.0000
  C   C71       1.0  0.7801315974480837  0.4693998302439196  0.49693088876518277  1.0000
  C   C72       1.0  0.2198684023104111  0.5306001698395088  0.5030691116565362  1.0000
  C   C73       1.0  0.7321447632103316  0.5115123264299556  0.5501725801812326  1.0000
  C   C74       1.0  0.26785523672954836  0.48848767307746277  0.4498274197579836  1.0000
  C   C75       1.0  0.5943757081712867  0.46565573947115374  0.5943105111003991  1.0000
  C   C76       1.0  0.40562429175713527  0.5343442607925328  0.40568948884097655  1.0000
  C   C77       1.0  0.5082569537645689  0.3811783686677944  0.5847633569784573  1.0000
  C   C78       1.0  0.491743046175311  0.6188216308396239  0.41523664296075896  1.0000
  N   N1        1.0  0.09115344919759145  0.8455225690329662  0.534156534613448  1.0000
  N   N2        1.0  0.9088465519927846  0.1544774312275496  0.4658434653288463  1.0000
  N   N3        1.0  0.5561192348867896  0.34186099595073155  0.5319042045312758  1.0000
  N   N4        1.0  0.4438807650416325  0.658139004312955  0.4680957954100998  1.0000
  O   O1        1.0  0.10534748216556974  0.29634814046573454  0.9170484078351416  1.0000
  O   O2        1.0  0.8946525177743103  0.7036518590416838  0.08295159210407455  1.0000
  O   O3        1.0  0.5291000023534402  0.27059696878094047  0.9462036360087913  1.0000
  O   O4        1.0  0.4708999975749818  0.729403031482746  0.05379636393258441  1.0000
  O   O5        1.0  0.40644733164175284  0.20364813009277605  0.1024095124140049  1.0000
  O   O6        1.0  0.593552668116742  0.7963518699906523  0.897590488007714  1.0000
  O   O7        1.0  0.9797750946614466  0.20476962551844302  0.07581376613574581  1.0000
  O   O8        1.0  0.020224905108505862  0.795230373808717  0.9241862342838137  1.0000
  O   O9        1.0  0.002069236823890283  0.7578811695317739  0.5444738386005461  1.0000
  O   O10       1.0  0.9979307643779439  0.24211882997247378  0.4555261613395888  1.0000
  O   O11       1.0  0.47132978032013007  0.2624433968434513  0.5223233986648029  1.0000
  O   O12       1.0  0.528670219608292  0.7375566034202352  0.47767660127657274  1.0000
  O   O13       1.0  0.12665997270577053  0.25657240968402134  0.5629228088584  1.0000
  O   O14       1.0  0.8733400272226514  0.7434275905796652  0.43707719108297566  1.0000
  F   F1        1.0  0.2781098202014026  0.2896570203372533  0.7997714333998751  1.0000
  F   F2        1.0  0.7218901797270193  0.7103429799264332  0.20022856654150037  1.0000
  F   F3        1.0  0.23945981319931384  0.43554632527630693  0.6931955907328415  1.0000
  F   F4        1.0  0.7605401867405661  0.5644536742311114  0.30680440920637475  1.0000
  F   F5        1.0  0.818945879720122  0.5980946142043557  0.8150738392881802  1.0000
  F   F6        1.0  0.18105412020830006  0.4019053860593307  0.18492616065319545  1.0000
  F   F7        1.0  0.8711283806670933  0.4582760699880842  0.9228439365848687  1.0000
  F   F8        1.0  0.12887161926132878  0.5417239302756023  0.07715606335650697  1.0000
  F   F9        1.0  0.5214657987328568  0.42726916084493033  0.839842138750795  1.0000
  F   F10       1.0  0.4785342011955652  0.5727308394187561  0.16015786119058045  1.0000
  F   F11       1.0  0.6932028214362521  0.41725008195017554  0.7254396586441808  1.0000
  F   F12       1.0  0.30679717849217  0.5827499183135109  0.2745603412971947  1.0000
  F   F13       1.0  0.9095204318570717  0.08787797731810777  0.8203963489757471  1.0000
  F   F14       1.0  0.09047956808280846  0.9121220221893105  0.17960365096346914  1.0000
  F   F15       1.0  0.7256719581972269  0.09510687816641472  0.9334604891070567  1.0000
  F   F16       1.0  0.27432804156126794  0.9048931219170137  0.06653951131466211  1.0000
  F   F17       1.0  0.24460594968805952  0.07233489502508124  0.20893408432777685  1.0000
  F   F18       1.0  0.7553940502403625  0.9276651052386052  0.7910659156135988  1.0000
  F   F19       1.0  0.2725636945256651  0.09438893606989493  0.32800034195239913  1.0000
  F   F20       1.0  0.7274363054027569  0.9056110641937916  0.6719996579889764  1.0000
  F   F21       1.0  0.6376203604008871  0.38996997227281327  0.23943742060488843  1.0000
  F   F22       1.0  0.362379639527535  0.6100300279908734  0.7605625793364872  1.0000
  F   F23       1.0  0.6110163346116307  0.3659969430680567  0.1199894341075171  1.0000
  F   F24       1.0  0.3889836653282493  0.6340030564393616  0.8800105658316991  1.0000
  F   F25       1.0  0.9675971835274468  0.23166661025960564  0.19792953728608703  1.0000
  F   F26       1.0  0.032402816400975226  0.7683333900040807  0.8020704626552886  1.0000
  F   F27       1.0  0.7939858911854188  0.09994321057338708  0.2988113304415642  1.0000
  F   F28       1.0  0.206014108573076  0.9000567895100412  0.7011886699801546  1.0000
  F   F29       1.0  0.6064822925275881  0.9085085892315315  0.1571556289497881  1.0000
  F   F30       1.0  0.393517707412292  0.09149141027588668  0.8428443709894281  1.0000
  F   F31       1.0  0.7925091224559196  0.03560739206208594  0.0571043646423842  1.0000
  F   F32       1.0  0.20749087730257518  0.9643926080213425  0.9428956357793346  1.0000
  I   I1        1.0  0.995821895547384  0.6306577919633173  0.666121763945717  1.0000
  I   I2        1.0  0.0041781042111109085  0.3693422081201111  0.33387823647600195  1.0000
  I   I3        1.0  0.9411888105191493  0.2459103661128364  0.6787298117971388  1.0000
  I   I4        1.0  0.05881118940927277  0.7540896341508502  0.32127018814423675  1.0000
  I   I5        1.0  0.4794996465291575  0.2556849034630076  0.3813259375425866  1.0000
  I   I6        1.0  0.5205003533992645  0.744315096800679  0.618674062398789  1.0000
  I   I7        1.0  0.5653546098045191  0.8952512253238015  0.3095023911845797  1.0000
  I   I8        1.0  0.4346453901239029  0.10474877493988509  0.6904976087567959  1.0000
