data_image0
_chemical_formula_structural       H28C42N2F12I18
_chemical_formula_sum              "H28 C42 N2 F12 I18"
_cell_length_a       9.465679312007124
_cell_length_b       14.681680892816136
_cell_length_c       12.703662841499431
_cell_angle_alpha    90.0
_cell_angle_beta     108.77033507157083
_cell_angle_gamma    90.0

_space_group_name_H-M_alt    "P 1"
_space_group_IT_number       1

loop_
  _space_group_symop_operation_xyz
  'x, y, z'

loop_
  _atom_site_type_symbol
  _atom_site_label
  _atom_site_symmetry_multiplicity
  _atom_site_fract_x
  _atom_site_fract_y
  _atom_site_fract_z
  _atom_site_occupancy
  H   H1        1.0  0.5965438201315645  0.43012997803882225  0.08709128098946527  1.0000
  H   H2        1.0  0.4034561804462196  0.9301299782834763  0.9129087192473112  1.0000
  H   H3        1.0  0.5860075387763373  0.5505944359514989  0.21825800391723016  1.0000
  H   H4        1.0  0.41399246074635826  0.050594436387965874  0.7817419963226773  1.0000
  H   H5        1.0  0.8058448632967531  0.5823223840931814  0.38468360119392  1.0000
  H   H6        1.0  0.19415513691802114  0.08232238384852737  0.6153163982114712  1.0000
  H   H7        1.0  0.038456718314324324  0.4917753759062321  0.419099001587086  1.0000
  H   H8        1.0  0.9615432812083711  0.9917753761508862  0.5809009986528213  1.0000
  H   H9        1.0  0.0534966731363281  0.3723728563447443  0.287706727072095  1.0000
  H   H10       1.0  0.946503327441456  0.8723728565893984  0.7122932731646814  1.0000
  H   H11       1.0  0.6412948867750148  0.35470788855982927  0.9652996298578302  1.0000
  H   H12       1.0  0.35870511380276937  0.8547078881233624  0.0347003703789463  1.0000
  H   H13       1.0  0.617905843582527  0.2699136508231168  0.060755905054367454  1.0000
  H   H14       1.0  0.38209415699525723  0.7699136510677709  0.939244095182409  1.0000
  H   H15       1.0  0.7110533780447724  0.24204803632115723  0.9620692109060912  1.0000
  H   H16       1.0  0.2889466225330117  0.7420480358846904  0.037930789330685236  1.0000
  H   H17       1.0  0.8905199564798512  0.42473736866541323  0.9995854388166182  1.0000
  H   H18       1.0  0.10948004409793291  0.9247373682289465  0.00041456142015815705  1.0000
  H   H19       1.0  0.9402990734451272  0.3109945736686147  0.9709739595344202  1.0000
  H   H20       1.0  0.059700927132656796  0.8109945739132688  0.029026040702356225  1.0000
  H   H21       1.0  0.04913480056807936  0.36998615210727887  0.09426684794333065  1.0000
  H   H22       1.0  0.9508652000097048  0.869986152351933  0.9057331522934459  1.0000
  H   H23       1.0  0.9123290838395063  0.18536284434104694  0.09463838038289758  1.0000
  H   H24       1.0  0.08767091568318915  0.685362844585701  0.9053616198570098  1.0000
  H   H25       1.0  0.8401019587264887  0.2106500503980632  0.20636130825913532  1.0000
  H   H26       1.0  0.15989804185129533  0.7106500506427172  0.793638691977641  1.0000
  H   H27       1.0  0.02219429438786567  0.24918921319085077  0.21161341526802593  1.0000
  H   H28       1.0  0.9778057051348297  0.7491892127543839  0.7883865849718814  1.0000
  C   C1        1.0  0.473795178342937  0.5153831468781237  0.5490434771484056  1.0000
  C   C2        1.0  0.5262048208167485  0.015383146633469636  0.4509565222601163  1.0000
  C   C3        1.0  0.6290654632988137  0.5077979363826081  0.5897139842795299  1.0000
  C   C4        1.0  0.3709345372789703  0.0077979368190749425  0.4102860159572465  1.0000
  C   C5        1.0  0.7098546165633957  0.506615706627942  0.7029957721469943  1.0000
  C   C6        1.0  0.29014538259628997  0.006615707064408841  0.2970042272615278  1.0000
  C   C7        1.0  0.6280943743331651  0.5127978209691147  0.7765028446189912  1.0000
  C   C8        1.0  0.37190562624461915  0.012797820724460632  0.22349715561778535  1.0000
  C   C9        1.0  0.4730337362785279  0.5203767753689782  0.7410526359854013  1.0000
  C   C10       1.0  0.5269662632441675  0.020376775124324085  0.25894736425450615  1.0000
  C   C11       1.0  0.3983110272222149  0.5218173774467926  0.6267923901257005  1.0000
  C   C12       1.0  0.6016889729925593  0.02181737720213856  0.3732076092796906  1.0000
  C   C13       1.0  0.48639893721495775  0.26202389209278787  0.36158953299445284  1.0000
  C   C14       1.0  0.5136010619447278  0.7620238923374419  0.6384104664140692  1.0000
  C   C15       1.0  0.6420553626279444  0.26025049160887326  0.39904721867368126  1.0000
  C   C16       1.0  0.3579446368947511  0.7602504911724064  0.6009527815662261  1.0000
  C   C17       1.0  0.7272995983079518  0.26294987870830216  0.5113648152421648  1.0000
  C   C18       1.0  0.2727004022698323  0.7629498782718352  0.48863518499461167  1.0000
  C   C19       1.0  0.6495652321126287  0.26701364364336444  0.5879518895191763  1.0000
  C   C20       1.0  0.3504347681021453  0.7670136438880185  0.4120481098862147  1.0000
  C   C21       1.0  0.4937547996108283  0.2668689762843947  0.555610924261989  1.0000
  C   C22       1.0  0.5062451995488572  0.7668689765290487  0.444389075146533  1.0000
  C   C23       1.0  0.4149171132929214  0.2644879273939298  0.4420208053280948  1.0000
  C   C24       1.0  0.5850828872848627  0.7644879276385839  0.5579791949086818  1.0000
  C   C25       1.0  0.8253490541193687  0.3925632733796933  0.17934946078125166  1.0000
  C   C26       1.0  0.17465094540332682  0.8925632736243474  0.8206505394586558  1.0000
  C   C27       1.0  0.694298272458885  0.44254608089045117  0.15922831576785537  1.0000
  C   C28       1.0  0.30570172670080054  0.9425460811351052  0.8407716836406666  1.0000
  C   C29       1.0  0.6883318852832226  0.5112199607657005  0.23379037348305887  1.0000
  C   C30       1.0  0.3116681152945614  0.011219961202167436  0.7662096267537175  1.0000
  C   C31       1.0  0.8114230024459145  0.5289318455218418  0.32692211764091145  1.0000
  C   C32       1.0  0.1885769981318697  0.028931845958308666  0.6730778825958651  1.0000
  C   C33       1.0  0.9417369054347899  0.47820801659266293  0.3464091273846698  1.0000
  C   C34       1.0  0.05826309372489558  0.978208016156196  0.6535908720238522  1.0000
  C   C35       1.0  0.9497520163386699  0.41012521277085406  0.2720915955790005  1.0000
  C   C36       1.0  0.050247984239114175  0.9101252130155081  0.7279084046577761  1.0000
  C   C37       1.0  0.690948075697106  0.29545257397077007  0.015757590612376422  1.0000
  C   C38       1.0  0.3090519238255894  0.7954525735343031  0.9842424096275308  1.0000
  C   C39       1.0  0.9370900021155142  0.3594910384261611  0.03567956600122496  1.0000
  C   C40       1.0  0.06290999740718128  0.8594910386708151  0.9643204342386824  1.0000
  C   C41       1.0  0.9086631598607762  0.23528837230689847  0.15770225568229498  1.0000
  C   C42       1.0  0.09133684071700796  0.7352883718704316  0.8422977445544816  1.0000
  N   N1        1.0  0.8391848511496061  0.3212356203919208  0.09812681193825648  1.0000
  N   N2        1.0  0.16081514906516808  0.8212356206365748  0.9018731874671345  1.0000
  F   F1        1.0  0.7048212016711396  0.5010117358972977  0.5162371259947288  1.0000
  F   F2        1.0  0.29517879890664445  0.0010117356526437088  0.48376287424204767  1.0000
  F   F3        1.0  0.7019925459522429  0.5115310028073673  0.8873782370062648  1.0000
  F   F4        1.0  0.29800745462554123  0.01153100256271318  0.11262176323051154  1.0000
  F   F5        1.0  0.24763137947658087  0.5294950242246322  0.5905897671025774  1.0000
  F   F6        1.0  0.7523686211012032  0.029495024661099146  0.409410233134199  1.0000
  F   F7        1.0  0.7139277651978315  0.2554341439088902  0.32262953624984136  1.0000
  F   F8        1.0  0.28607223432486395  0.7554341441535443  0.6773704639900661  1.0000
  F   F9        1.0  0.7276663686700525  0.2700843376823596  0.6976938607129868  1.0000
  F   F10       1.0  0.272333630852643  0.7700843379270137  0.30230613952692065  1.0000
  F   F11       1.0  0.263350733523311  0.26426869500334055  0.40854724179703494  1.0000
  F   F12       1.0  0.7366492656363745  0.7642686952479947  0.5914527576114871  1.0000
  I   I1        1.0  0.9890024019479775  0.6380629022242104  0.10175299980003372  1.0000
  I   I2        1.0  0.010997598266796617  0.13806290266067733  0.8982469996053575  1.0000
  I   I3        1.0  0.7508679764002243  0.7629071392963337  0.10180174853109245  1.0000
  I   I4        1.0  0.24913202417755972  0.2629071390516797  0.898198251705684  1.0000
  I   I5        1.0  0.24506168491294675  0.5307538010727957  0.0898349756643979  1.0000
  I   I6        1.0  0.7549383146097487  0.030753800828141633  0.9101650245755096  1.0000
  I   I7        1.0  0.3652987960849113  0.5171229265522956  0.37605498513305535  1.0000
  I   I8        1.0  0.6347012034377842  0.017122926307641576  0.623945015106852  1.0000
  I   I9        1.0  0.9427268739788845  0.4965244486118047  0.7585353464784114  1.0000
  I   I10       1.0  0.057273125543810824  0.9965244488564587  0.241464653761496  1.0000
  I   I11       1.0  0.36268179093984876  0.5273974571800394  0.8610543348164749  1.0000
  I   I12       1.0  0.6373182085828467  0.02739745693538535  0.13894566542343248  1.0000
  I   I13       1.0  0.3715866048768159  0.2642887853460032  0.1892365114019123  1.0000
  I   I14       1.0  0.6284133946458795  0.7642887855906573  0.8107634888379951  1.0000
  I   I15       1.0  0.9604331133680418  0.2595996172253634  0.5608458731729555  1.0000
  I   I16       1.0  0.03956688720974237  0.7595996167888965  0.43915412706382095  1.0000
  I   I17       1.0  0.3862711063149714  0.26489760459941536  0.6780508965785866  1.0000
  I   I18       1.0  0.6137288942628126  0.7648976048440694  0.32194910365818985  1.0000
