data_image0
_chemical_formula_structural       H116C116N8O16
_chemical_formula_sum              "H116 C116 N8 O16"
_cell_length_a       31.016259959747455
_cell_length_b       5.3461037094911745
_cell_length_c       14.489538610338654
_cell_angle_alpha    90.0
_cell_angle_beta     96.30354321922464
_cell_angle_gamma    90.0

_space_group_name_H-M_alt    "P 1"
_space_group_IT_number       1

loop_
  _space_group_symop_operation_xyz
  'x, y, z'

loop_
  _atom_site_type_symbol
  _atom_site_label
  _atom_site_symmetry_multiplicity
  _atom_site_fract_x
  _atom_site_fract_y
  _atom_site_fract_z
  _atom_site_occupancy
  H   H1        1.0  0.1789389903893009  0.13315618601565687  0.7832810884033434  1.0000
  H   H2        1.0  0.8210610094528145  0.13315618601565687  0.2167189117706398  1.0000
  H   H3        1.0  0.678938990553393  0.6331561869985058  0.7832810885818445  1.0000
  H   H4        1.0  0.32106100961307277  0.6331561869985058  0.21671891166026885  1.0000
  H   H5        1.0  0.5897811788131994  0.8742337698579425  0.03639458450380058  1.0000
  H   H6        1.0  0.410218821028916  0.8742337698579425  0.9636054156701828  1.0000
  H   H7        1.0  0.08978117897345766  0.3742337707456146  0.03639458439342965  1.0000
  H   H8        1.0  0.910218821193008  0.3742337707456146  0.9636054158486839  1.0000
  H   H9        1.0  0.1652764685839524  0.6223842766261422  0.6135207138930437  1.0000
  H   H10       1.0  0.8347235315825132  0.6223842766261422  0.38647928634906964  1.0000
  H   H11       1.0  0.6652764684236941  0.12238427751381431  0.6135207140034147  1.0000
  H   H12       1.0  0.33472353141842126  0.12238427751381431  0.38647928617056865  1.0000
  H   H13       1.0  0.22728319062827798  0.8717785574802445  0.5698565143313868  1.0000
  H   H14       1.0  0.7727168095381877  0.8717785574802445  0.4301434859107265  1.0000
  H   H15       1.0  0.7272831904680197  0.37177855836791657  0.5698565144417579  1.0000
  H   H16       1.0  0.2727168093740957  0.37177855836791657  0.4301434857322254  1.0000
  H   H17       1.0  0.3156819029824533  0.4000758002885  0.7392860838031617  1.0000
  H   H18       1.0  0.684318096859662  0.4000758002885  0.2607139163708215  1.0000
  H   H19       1.0  0.8156819031465452  0.900075801271349  0.7392860839816628  1.0000
  H   H20       1.0  0.18431809701992036  0.900075801271349  0.26071391626045054  1.0000
  H   H21       1.0  0.2543342165888002  0.1421045683515755  0.779735942717891  1.0000
  H   H22       1.0  0.7456657835776656  0.1421045683515755  0.2202640575242224  1.0000
  H   H23       1.0  0.7543342164285419  0.6421045693344245  0.7797359428282621  1.0000
  H   H24       1.0  0.24566578341357348  0.6421045693344245  0.22026405734572127  1.0000
  H   H25       1.0  0.3362345178460784  0.8521375973145102  0.6900949312899296  1.0000
  H   H26       1.0  0.6637654823203872  0.8521375973145102  0.3099050689521838  1.0000
  H   H27       1.0  0.8362345176858201  0.3521375982021824  0.6900949314003006  1.0000
  H   H28       1.0  0.16376548215629527  0.3521375982021824  0.3099050687736827  1.0000
  H   H29       1.0  0.30171282010979633  0.9965441655278077  0.6007843856661641  1.0000
  H   H30       1.0  0.698287179732319  0.9965441655278077  0.39921561450781917  1.0000
  H   H31       1.0  0.8017128202700807  0.4965441664154798  0.6007843851536647  1.0000
  H   H32       1.0  0.1982871798925773  0.4965441664154798  0.39921561439744824  1.0000
  H   H33       1.0  0.3491810577344687  0.49565550800962715  0.5794617443420278  1.0000
  H   H34       1.0  0.6508189421076466  0.49565550800962715  0.42053825583195553  1.0000
  H   H35       1.0  0.849181057894753  0.9956555071219549  0.5794617438295283  1.0000
  H   H36       1.0  0.15081894226790496  0.9956555071219549  0.42053825572158454  1.0000
  H   H37       1.0  0.3165370763319089  0.6521106864819519  0.4912754734100524  1.0000
  H   H38       1.0  0.6834629238345566  0.6521106864819519  0.5087245268320609  1.0000
  H   H39       1.0  0.8165370761716507  0.15211068736962416  0.49127547352042333  1.0000
  H   H40       1.0  0.18346292367046463  0.15211068736962416  0.5087245266535599  1.0000
  H   H41       1.0  0.3826065312331917  0.6513234664374683  0.3994745354102708  1.0000
  H   H42       1.0  0.6173934689294662  0.6513234664374683  0.6005254641408422  1.0000
  H   H43       1.0  0.8826065310729334  0.15132346732514046  0.3994745355206417  1.0000
  H   H44       1.0  0.11739346876918194  0.15132346732514046  0.6005254646533414  1.0000
  H   H45       1.0  0.41131324930458874  0.4990874616336144  0.4944956253171689  1.0000
  H   H46       1.0  0.5886867505375266  0.4990874616336144  0.5055043748568143  1.0000
  H   H47       1.0  0.911313249464873  0.9990874626164634  0.49449562480466946  1.0000
  H   H48       1.0  0.08868675037343461  0.9990874626164634  0.5055043746783133  1.0000
  H   H49       1.0  0.4352472841414808  0.9999709116209439  0.40868243312391866  1.0000
  H   H50       1.0  0.5647527160249849  0.9999709116209439  0.5913175671181948  1.0000
  H   H51       1.0  0.9352472839774149  0.499970912508616  0.4086824325432891  1.0000
  H   H52       1.0  0.06475271586089285  0.499970912508616  0.5913175669396937  1.0000
  H   H53       1.0  0.47324598321048056  0.05141464044403304  0.5581993992071127  1.0000
  H   H54       1.0  0.5267540166316348  0.05141464044403304  0.44180060096687046  1.0000
  H   H55       1.0  0.9732459833745725  0.5514146395563608  0.5581993993856139  1.0000
  H   H56       1.0  0.02675401679189311  0.5514146395563608  0.4418006008564995  1.0000
  H   H57       1.0  0.5210086384829792  0.4812831287638618  0.4372072128804094  1.0000
  H   H58       1.0  0.4789913613591362  0.4812831287638618  0.5627927872935738  1.0000
  H   H59       1.0  0.021008638643237435  0.9812831278761897  0.4372072127700385  1.0000
  H   H60       1.0  0.9789913615232283  0.9812831278761897  0.562792787472075  1.0000
  H   H61       1.0  0.5027573299350941  0.02574815369848134  0.269442543648255  1.0000
  H   H62       1.0  0.4972426699032135  0.02574815369848134  0.7305574558347278  1.0000
  H   H63       1.0  0.0027573300953524942  0.5257481528108092  0.2694425435378841  1.0000
  H   H64       1.0  0.9972426700673055  0.5257481528108092  0.7305574560132289  1.0000
  H   H65       1.0  0.5413611374695816  0.06450817992695158  0.13110566602957152  1.0000
  H   H66       1.0  0.45863886237253365  0.06450817992695158  0.8688943341444118  1.0000
  H   H67       1.0  0.04136113762983994  0.5645081809098006  0.1311056659192006  1.0000
  H   H68       1.0  0.9586388625366257  0.5645081809098006  0.8688943343229127  1.0000
  H   H69       1.0  0.6099641938266456  0.37915298507984285  0.20384932390860594  1.0000
  H   H70       1.0  0.3900358063398201  0.37915298507984285  0.7961506763335076  1.0000
  H   H71       1.0  0.10996419366255353  0.8791529860626919  0.20384932373010484  1.0000
  H   H72       1.0  0.8900358061757542  0.8791529860626919  0.796150675752878  1.0000
  H   H73       1.0  0.5715982333513309  0.341428150142214  0.34335830084536506  1.0000
  H   H74       1.0  0.42840176649078454  0.341428150142214  0.6566416993286183  1.0000
  H   H75       1.0  0.07159823351158913  0.841428151125063  0.3433583007349941  1.0000
  H   H76       1.0  0.9284017666548765  0.841428151125063  0.6566416995071193  1.0000
  H   H77       1.0  0.4596888049617648  0.30375847687297486  0.9778403359454304  1.0000
  H   H78       1.0  0.5403111952008932  0.30375847687297486  0.022159663605682563  1.0000
  H   H79       1.0  0.9596888048015066  0.8037584778558238  0.9778403360558013  1.0000
  H   H80       1.0  0.040311195040608844  0.8037584778558238  0.02215966411818195  1.0000
  H   H81       1.0  0.4756176235488909  0.6001604877780002  0.11109891878525711  1.0000
  H   H82       1.0  0.5243823766137671  0.6001604877780002  0.8889010807658557  1.0000
  H   H83       1.0  0.9756176233886326  0.10016048679515127  0.11109891889562802  1.0000
  H   H84       1.0  0.024382376453482752  0.10016048679515127  0.8889010812783552  1.0000
  H   H85       1.0  0.44262260810404896  0.5166816676406939  0.2584307357601012  1.0000
  H   H86       1.0  0.5573773917380663  0.5166816676406939  0.741569264413882  1.0000
  H   H87       1.0  0.9426226082681409  0.016681668528366066  0.2584307359386023  1.0000
  H   H88       1.0  0.05737739189832472  0.016681668528366066  0.7415692643035112  1.0000
  H   H89       1.0  0.3962127246151658  0.13084139927142854  0.26723876549819514  1.0000
  H   H90       1.0  0.603787275547492  0.13084139927142854  0.7327612340529178  1.0000
  H   H91       1.0  0.8962127244549075  0.6308414002542776  0.2672387656085661  1.0000
  H   H92       1.0  0.10378727538340016  0.6308414002542776  0.7327612338744168  1.0000
  H   H93       1.0  0.3877236019870363  0.8429035452491981  0.1328453716944594  1.0000
  H   H94       1.0  0.6122763981794294  0.8429035452491981  0.867154628547654  1.0000
  H   H95       1.0  0.8877236018267779  0.34290354426634906  0.13284537180483033  1.0000
  H   H96       1.0  0.11227639801533736  0.34290354426634906  0.867154628369153  1.0000
  H   H97       1.0  0.35154564248687376  0.6548813977896475  0.03962953970859482  1.0000
  H   H98       1.0  0.648454357679592  0.6548813977896475  0.9603704605335186  1.0000
  H   H99       1.0  0.8515456423266153  0.15488139867731962  0.03962953981896572  1.0000
  H   H100      1.0  0.14845435751549993  0.15488139867731962  0.9603704603550175  1.0000
  H   H101      1.0  0.3478793599686715  0.34573706019180833  0.9138120978448312  1.0000
  H   H102      1.0  0.6521206398734439  0.34573706019180833  0.08618790232915202  1.0000
  H   H103      1.0  0.8478793601327634  0.8457370593041362  0.9138120980233325  1.0000
  H   H104      1.0  0.1521206400337022  0.8457370593041362  0.08618790221878109  1.0000
  H   H105      1.0  0.3025752776158542  0.9552511020191293  0.9261352382761663  1.0000
  H   H106      1.0  0.6974247222224534  0.9552511020191293  0.07386476120681644  1.0000
  H   H107      1.0  0.8025752777799462  0.4552511029068015  0.9261352384546674  1.0000
  H   H108      1.0  0.1974247223865194  0.4552511029068015  0.07386476178744597  1.0000
  H   H109      1.0  0.26212690800165506  0.9081934047370196  0.0667175637341821  1.0000
  H   H110      1.0  0.7378730918404602  0.9081934047370196  0.9332824364398011  1.0000
  H   H111      1.0  0.762126908165747  0.40819340375417057  0.06671756391268316  1.0000
  H   H112      1.0  0.2378730920007186  0.40819340375417057  0.9332824363294302  1.0000
  H   H113      1.0  0.2695194052133511  0.24049229305399472  0.18783835213689765  1.0000
  H   H114      1.0  0.730480594949307  0.24049229305399472  0.8121616474142153  1.0000
  H   H115      1.0  0.7695194050530929  0.7404922921663226  0.18783835224726858  1.0000
  H   H116      1.0  0.2304805947890225  0.7404922921663226  0.8121616479267147  1.0000
  C   C1        1.0  0.19831262127759802  0.5711123943554391  0.6401265706775018  1.0000
  C   C2        1.0  0.8016873785645173  0.5711123943554391  0.3598734294964815  1.0000
  C   C3        1.0  0.6983126214416899  0.07111239524311132  0.6401265708560029  1.0000
  C   C4        1.0  0.30168737872477563  0.07111239524311132  0.35987342938611055  1.0000
  C   C5        1.0  0.23327485242525414  0.7123224458289545  0.616522686239323  1.0000
  C   C6        1.0  0.7667251474168612  0.7123224458289545  0.38347731393466034  1.0000
  C   C7        1.0  0.7332748525893461  0.21232244671662664  0.616522686417824  1.0000
  C   C8        1.0  0.2667251475771195  0.21232244671662664  0.3834773138242894  1.0000
  C   C9        1.0  0.2760195010868498  0.6581986360932209  0.6527460282446339  1.0000
  C   C10       1.0  0.7239804987514579  0.6581986360932209  0.3472539712383489  1.0000
  C   C11       1.0  0.7760195009265916  0.15819863698089304  0.652746028355005  1.0000
  C   C12       1.0  0.22398049891552385  0.15819863698089304  0.3472539718189783  1.0000
  C   C13       1.0  0.2826644487255223  0.44969578980143216  0.7112984408623749  1.0000
  C   C14       1.0  0.7173355514409434  0.44969578980143216  0.28870155937973846  1.0000
  C   C15       1.0  0.7826644485614564  0.9496957907842811  0.7112984402817454  1.0000
  C   C16       1.0  0.21733555127685134  0.9496957907842811  0.28870155920123736  1.0000
  C   C17       1.0  0.24819763280158663  0.3035866264843696  0.7343928167139021  1.0000
  C   C18       1.0  0.7518023670405288  0.3035866264843696  0.26560718346008116  1.0000
  C   C19       1.0  0.7481976329656786  0.8035866274672187  0.7343928168924031  1.0000
  C   C20       1.0  0.25180236720078697  0.8035866274672187  0.2656071833497103  1.0000
  C   C21       1.0  0.20532538999230854  0.36659634689102083  0.7007063830217329  1.0000
  C   C22       1.0  0.7946746101703493  0.36659634689102083  0.2992936165293801  1.0000
  C   C23       1.0  0.7053253898320502  0.8665963460033487  0.7007063831321036  1.0000
  C   C24       1.0  0.2946746100100652  0.8665963460033487  0.2992936170418795  1.0000
  C   C25       1.0  0.31350713425003224  0.8141575428611099  0.6277979644644169  1.0000
  C   C26       1.0  0.6864928659164333  0.8141575428611099  0.3722020357776965  1.0000
  C   C27       1.0  0.8135071340897739  0.31415754374878213  0.6277979645747879  1.0000
  C   C28       1.0  0.18649286575234145  0.31415754374878213  0.3722020355991954  1.0000
  C   C29       1.0  0.3381401195608963  0.6835156814321864  0.5560438007238886  1.0000
  C   C30       1.0  0.6618598806055694  0.6835156814321864  0.44395619951822485  1.0000
  C   C31       1.0  0.8381401193968304  0.1835156823198586  0.556043800143259  1.0000
  C   C32       1.0  0.16185988044147737  0.1835156823198586  0.4439561993397237  1.0000
  C   C33       1.0  0.37662816990227754  0.8263195759104441  0.5283170825772625  1.0000
  C   C34       1.0  0.6233718302641881  0.8263195759104441  0.471682917664851  1.0000
  C   C35       1.0  0.8766281697382117  0.32631957679811635  0.528317081996633  1.0000
  C   C36       1.0  0.12337183010009609  0.32631957679811635  0.4716829174863499  1.0000
  C   C37       1.0  0.40359776547145226  0.6856325689104276  0.46488448709178526  1.0000
  C   C38       1.0  0.5964022346912057  0.6856325689104276  0.5351155124593278  1.0000
  C   C39       1.0  0.903597765311194  0.1856325679275785  0.46488448720215614  1.0000
  C   C40       1.0  0.09640223453092138  0.1856325679275785  0.5351155129718271  1.0000
  C   C41       1.0  0.4443124317928325  0.8207815183625824  0.4436053568783698  1.0000
  C   C42       1.0  0.5556875680454753  0.8207815183625824  0.556394642604613  1.0000
  C   C43       1.0  0.9443124319569245  0.32078151925025444  0.44360535705687093  1.0000
  C   C44       1.0  0.05568756820954119  0.32078151925025444  0.5563946431852425  1.0000
  C   C45       1.0  0.4791097319067205  0.8737720803483248  0.5237608836340835  1.0000
  C   C46       1.0  0.5208902682597452  0.8737720803483248  0.47623911660803  1.0000
  C   C47       1.0  0.9791097317426546  0.3737720793654758  0.5237608830534539  1.0000
  C   C48       1.0  0.020890268095653117  0.3737720793654758  0.4762391164295289  1.0000
  C   C49       1.0  0.5120954746091085  0.663026179927468  0.4040344072873309  1.0000
  C   C50       1.0  0.4879045252330068  0.663026179927468  0.5959655928866523  1.0000
  C   C51       1.0  0.012095474769366824  0.1630261808151402  0.40403440717696  1.0000
  C   C52       1.0  0.9879045253970988  0.1630261808151402  0.5959655930651535  1.0000
  C   C53       1.0  0.5348261520785753  0.6835469266172927  0.31794035317950353  1.0000
  C   C54       1.0  0.46517384775973236  0.6835469266172927  0.6820596463034793  1.0000
  C   C55       1.0  0.034826152242641246  0.1835469275049648  0.31794035376013313  1.0000
  C   C56       1.0  0.9651738479238243  0.1835469275049648  0.6820596464819804  1.0000
  C   C57       1.0  0.5265355979796958  0.8836258005270928  0.25613428144886036  1.0000
  C   C58       1.0  0.4734644021829621  0.8836258005270928  0.7438657181022525  1.0000
  C   C59       1.0  0.026535597819411526  0.38362580141476504  0.25613428196135973  1.0000
  C   C60       1.0  0.9734644020227038  0.38362580141476504  0.7438657182126235  1.0000
  C   C61       1.0  0.5480150286639952  0.9050489857520014  0.17716182173471776  1.0000
  C   C62       1.0  0.4519849714986628  0.9050489857520014  0.8228381778163952  1.0000
  C   C63       1.0  0.048015028503710866  0.40504898476915246  0.1771618222472171  1.0000
  C   C64       1.0  0.9519849713384044  0.40504898476915246  0.8228381779267662  1.0000
  C   C65       1.0  0.5790443424395268  0.7255633075567823  0.15806949505150253  1.0000
  C   C66       1.0  0.42095565740258856  0.7255633075567823  0.8419305051224807  1.0000
  C   C67       1.0  0.07904434259978509  0.22556330844445446  0.1580694949411316  1.0000
  C   C68       1.0  0.9209556575666806  0.22556330844445446  0.8419305053009818  1.0000
  C   C69       1.0  0.5868602057174096  0.5226400780515222  0.2190763383720991  1.0000
  C   C70       1.0  0.41313979412089813  0.5226400780515222  0.7809236611108837  1.0000
  C   C71       1.0  0.08686020588147558  0.02264007706867322  0.21907633895272863  1.0000
  C   C72       1.0  0.9131397942849901  0.02264007706867322  0.7809236612893847  1.0000
  C   C73       1.0  0.5649073490724164  0.5021751290072746  0.29754366689424094  1.0000
  C   C74       1.0  0.4350926510902417  0.5021751290072746  0.702456332656872  1.0000
  C   C75       1.0  0.06490734891213193  0.0021751298949467556  0.2975436674067403  1.0000
  C   C76       1.0  0.9350926509299835  0.0021751298949467556  0.702456332767243  1.0000
  C   C77       1.0  0.44725773260937096  0.26875719553460564  0.044239707357903474  1.0000
  C   C78       1.0  0.5527422675570947  0.26875719553460564  0.9557602928842099  1.0000
  C   C79       1.0  0.9472577324491126  0.7687571965174546  0.04423970746827438  1.0000
  C   C80       1.0  0.052742267393002716  0.7687571965174546  0.9557602927057088  1.0000
  C   C81       1.0  0.4554796312866046  0.43554356528216615  0.11776988829230756  1.0000
  C   C82       1.0  0.5445203688798611  0.43554356528216615  0.8822301119498058  1.0000
  C   C83       1.0  0.9554796311225388  0.9355435643944939  0.11776988771167804  1.0000
  C   C84       1.0  0.04452036871576901  0.9355435643944939  0.8822301117713048  1.0000
  C   C85       1.0  0.43701295847455995  0.3892365829539909  0.19968601586739576  1.0000
  C   C86       1.0  0.562987041688098  0.3892365829539909  0.8003139836837172  1.0000
  C   C87       1.0  0.9370129583143018  0.8892365820663187  0.19968601597776672  1.0000
  C   C88       1.0  0.06298704152400598  0.8892365820663187  0.8003139835052162  1.0000
  C   C89       1.0  0.4117810983801892  0.17499039503089617  0.2054134669680714  1.0000
  C   C90       1.0  0.5882189014619261  0.17499039503089617  0.794586533205912  1.0000
  C   C91       1.0  0.9117810985442811  0.674990394143224  0.20541346714657246  1.0000
  C   C92       1.0  0.08821890162218445  0.674990394143224  0.794586533095541  1.0000
  C   C93       1.0  0.40644778425926625  0.014414409855759125  0.12962138042492066  1.0000
  C   C94       1.0  0.5935522159071994  0.014414409855759125  0.8703786198171928  1.0000
  C   C95       1.0  0.9064477840990078  0.514414408968087  0.12962138053529157  1.0000
  C   C96       1.0  0.09355221574310739  0.514414408968087  0.8703786196386918  1.0000
  C   C97       1.0  0.3319605284867854  0.48756629905484683  0.043968386327376846  1.0000
  C   C98       1.0  0.6680394716758725  0.48756629905484683  0.9560316132237361  1.0000
  C   C99       1.0  0.8319605283265271  0.9875662981671748  0.043968386437747774  1.0000
  C   C100      1.0  0.16803947151558823  0.9875662981671748  0.9560316137362354  1.0000
  C   C101      1.0  0.3295988519745272  0.3125628290811889  0.9724888167981064  1.0000
  C   C102      1.0  0.6704011481919384  0.3125628290811889  0.02751118344400696  1.0000
  C   C103      1.0  0.829598851814269  0.8125628281935169  0.9724888169084773  1.0000
  C   C104      1.0  0.17040114802784642  0.8125628281935169  0.02751118326550589  1.0000
  C   C105      1.0  0.30448242490735133  0.09878865781492036  0.9798399967809165  1.0000
  C   C106      1.0  0.695517574934764  0.09878865781492036  0.02016000339306685  1.0000
  C   C107      1.0  0.8044824250714433  0.5987886569272483  0.9798399969594175  1.0000
  C   C108      1.0  0.1955175750950223  0.5987886569272483  0.02016000328269592  1.0000
  C   C109      1.0  0.2821530523121223  0.07142262304453904  0.057733445347180626  1.0000
  C   C110      1.0  0.7178469478543432  0.07142262304453904  0.9422665548949327  1.0000
  C   C111      1.0  0.7821530521480564  0.5714226221568669  0.057733444766551116  1.0000
  C   C112      1.0  0.21784694769025137  0.5714226221568669  0.9422665547164317  1.0000
  C   C113      1.0  0.2862608619520487  0.25684903896686495  0.12574326963494697  1.0000
  C   C114      1.0  0.7137391382106092  0.25684903896686495  0.874256729916166  1.0000
  C   C115      1.0  0.7862608617917904  0.7568490380791928  0.12574326974531788  1.0000
  C   C116      1.0  0.21373913804651726  0.7568490380791928  0.8742567297376649  1.0000
  N   N1        1.0  0.42354197661177806  0.06018974331319624  0.04993779953976781  1.0000
  N   N2        1.0  0.5764580235546876  0.06018974331319624  0.9500622007023456  1.0000
  N   N3        1.0  0.9235419764515198  0.5601897424255241  0.04993779965013875  1.0000
  N   N4        1.0  0.0764580233905956  0.5601897424255241  0.9500622005238445  1.0000
  N   N5        1.0  0.31103264202350006  0.4611725368557536  0.1198321335377597  1.0000
  N   N6        1.0  0.6889673581429656  0.4611725368557536  0.8801678667043538  1.0000
  N   N7        1.0  0.8110326418594341  0.9611725378386026  0.11983213295713019  1.0000
  N   N8        1.0  0.18896735797887362  0.9611725378386026  0.8801678665258527  1.0000
  O   O1        1.0  0.17034489253181107  0.23969064755048694  0.7255532311495169  1.0000
  O   O2        1.0  0.8296551076346547  0.23969064755048694  0.2744467690925967  1.0000
  O   O3        1.0  0.6703448923715527  0.739690648533336  0.7255532312598877  1.0000
  O   O4        1.0  0.3296551074705626  0.739690648533336  0.2744467689140956  1.0000
  O   O5        1.0  0.3847957731487115  0.04341110135741992  0.5531204011102338  1.0000
  O   O6        1.0  0.6152042270139465  0.04341110135741992  0.4468795984408792  1.0000
  O   O7        1.0  0.884795772988453  0.5434111023402689  0.5531204012206047  1.0000
  O   O8        1.0  0.11520422684985453  0.5434111023402689  0.4468795982623781  1.0000
  O   O9        1.0  0.4653482560998573  0.6646088166400665  0.3801817801307828  1.0000
  O   O10       1.0  0.5346517440666084  0.6646088166400665  0.6198182201113306  1.0000
  O   O11       1.0  0.9653482559395989  0.16460881752773873  0.38018178024115373  1.0000
  O   O12       1.0  0.03465174390251636  0.16460881752773873  0.6198182199328296  1.0000
  O   O13       1.0  0.6018296896407842  0.7401789106662545  0.0837876652843853  1.0000
  O   O14       1.0  0.3981703105256815  0.7401789106662545  0.9162123349577281  1.0000
  O   O15       1.0  0.10182968947669212  0.24017891155392665  0.0837876651058842  1.0000
  O   O16       1.0  0.8981703103654233  0.24017891155392665  0.9162123350680991  1.0000
