data_image0
_chemical_formula_structural       H68C64N8Cl24Br4
_chemical_formula_sum              "H68 C64 N8 Cl24 Br4"
_cell_length_a       7.187160556295182
_cell_length_b       17.317842389459365
_cell_length_c       16.94074596998297
_cell_angle_alpha    90.0
_cell_angle_beta     95.94603024655451
_cell_angle_gamma    90.0

_space_group_name_H-M_alt    "P 1"
_space_group_IT_number       1

loop_
  _space_group_symop_operation_xyz
  'x, y, z'

loop_
  _atom_site_type_symbol
  _atom_site_label
  _atom_site_symmetry_multiplicity
  _atom_site_fract_x
  _atom_site_fract_y
  _atom_site_fract_z
  _atom_site_occupancy
  H   H1        1.0  0.6221018302866153  0.3999513030685474  0.35861488591563645  1.0000
  H   H2        1.0  0.37789816973043994  0.899951302795437  0.14138511430395254  1.0000
  H   H3        1.0  0.37789816925889  0.6000486969626709  0.641385113981006  1.0000
  H   H4        1.0  0.6221018313461304  0.10004869665834219  0.8586148861886489  1.0000
  H   H5        1.0  0.23049106975505182  0.4034414647550164  0.26648127758849594  1.0000
  H   H6        1.0  0.7695089301229016  0.9034414650593452  0.23351872203761245  1.0000
  H   H7        1.0  0.7695089297904534  0.596558535276202  0.7335187223081463  1.0000
  H   H8        1.0  0.2304910694226038  0.09655853497187318  0.76648127785903  1.0000
  H   H9        1.0  0.5940246293820908  0.3265118790688176  0.22589712932320666  1.0000
  H   H10       1.0  0.4059753704958626  0.8265118787957072  0.27410287030290176  1.0000
  H   H11       1.0  0.40597537155537766  0.6734881209624007  0.7741028705759143  1.0000
  H   H12       1.0  0.5940246290496428  0.17348812123551113  0.7258971295937406  1.0000
  H   H13       1.0  0.22604058413099673  0.251019528428432  0.2627274535922259  1.0000
  H   H14       1.0  0.7739594158860585  0.7510195287327608  0.23727254662736316  1.0000
  H   H15       1.0  0.7739594155536105  0.7489804716027864  0.7372725468978971  1.0000
  H   H16       1.0  0.22604058505140998  0.2489804712984576  0.7627274532717578  1.0000
  H   H17       1.0  0.606266241262977  0.24459442664625358  0.3624484921686541  1.0000
  H   H18       1.0  0.39373375875407823  0.7445944269505823  0.13755150805093488  1.0000
  H   H19       1.0  0.3937337582825284  0.7554055733849647  0.6375515077279883  1.0000
  H   H20       1.0  0.6062662421833902  0.25540557308063605  0.8624484918481861  1.0000
  H   H21       1.0  0.2533542551819264  0.3297964060162751  0.4010407717937935  1.0000
  H   H22       1.0  0.7466457448351289  0.8297964057431646  0.09895922842579545  1.0000
  H   H23       1.0  0.7466457457555421  0.6702035940149433  0.5989592281053274  1.0000
  H   H24       1.0  0.2533542548494783  0.17020359428805368  0.9010407720643275  1.0000
  H   H25       1.0  0.9321393982557364  0.25142519847912354  0.5782081273072123  1.0000
  H   H26       1.0  0.06786060221018224  0.7514251987834523  0.9217918722689621  1.0000
  H   H27       1.0  0.06786060128976898  0.7485748015520948  0.4217918725894301  1.0000
  H   H28       1.0  0.9321393987272862  0.2485748012477661  0.07820812763015889  1.0000
  H   H29       1.0  0.057432309742798275  0.3401078013959148  0.490444341546061  1.0000
  H   H30       1.0  0.9425676901351551  0.8401078011228044  0.00955565808004734  1.0000
  H   H31       1.0  0.942567689802707  0.6598921986353036  0.5095556583505814  1.0000
  H   H32       1.0  0.057432310802313355  0.15989219833097484  0.9904443418190735  1.0000
  H   H33       1.0  0.16499986842012615  0.4719500903284957  0.5362076403406916  1.0000
  H   H34       1.0  0.8350001321848942  0.9719500906328244  0.9637923598289634  1.0000
  H   H35       1.0  0.8350001325173423  0.5280499097027226  0.4637923595584294  1.0000
  H   H36       1.0  0.16499986736061106  0.02804990939839387  0.03620764006767902  1.0000
  H   H37       1.0  0.1061119931364983  0.5150996775111821  0.6736511094848301  1.0000
  H   H38       1.0  0.893888006076559  0.015099677784292585  0.8263488906823463  1.0000
  H   H39       1.0  0.893888006409007  0.48490032194259697  0.32634889041181236  1.0000
  H   H40       1.0  0.10611199360804813  0.9849003222469257  0.17365110980777665  1.0000
  H   H41       1.0  0.964850182020591  0.41961490851903166  0.762817125633776  1.0000
  H   H42       1.0  0.03514981844532756  0.9196149088233605  0.7371828739423982  1.0000
  H   H43       1.0  0.03514981752491432  0.5803850915121868  0.23718287426286633  1.0000
  H   H44       1.0  0.9648501824921409  0.08038509120785796  0.26281712595672263  1.0000
  H   H45       1.0  0.8807294173627209  0.2873971138015061  0.7103398789135275  1.0000
  H   H46       1.0  0.11927058324229951  0.7873971135283957  0.7896601212561275  1.0000
  H   H47       1.0  0.11927058218278441  0.7126028862297122  0.28966012098311483  1.0000
  H   H48       1.0  0.8807294178342707  0.21260288650282264  0.21033987923647413  1.0000
  H   H49       1.0  0.8520069078267684  0.125726434681334  0.6587181574762117  1.0000
  H   H50       1.0  0.1479930913862889  0.6257264344082236  0.8412818426909646  1.0000
  H   H51       1.0  0.14799309171873698  0.8742735653498844  0.34128184242043075  1.0000
  H   H52       1.0  0.8520069081592164  0.37427356562299474  0.15871815720567767  1.0000
  H   H53       1.0  0.7410376855860992  0.995974601345154  0.6082259087631477  1.0000
  H   H54       1.0  0.25896231362695826  0.49597460104082525  0.8917740914040285  1.0000
  H   H55       1.0  0.2589623140985081  0.004025398686064395  0.39177409172697525  1.0000
  H   H56       1.0  0.7410376859185472  0.5040253989903931  0.10822590849261376  1.0000
  H   H57       1.0  0.7122802859475342  0.9711032495731711  0.4605255822905284  1.0000
  H   H58       1.0  0.28771971406952107  0.4711032492688424  0.03947441792906059  1.0000
  H   H59       1.0  0.28771971359797116  0.028896750458047248  0.5394744176061139  1.0000
  H   H60       1.0  0.7122802868679474  0.5288967501849369  0.9605255819700603  1.0000
  H   H61       1.0  0.7931630010503721  0.07826569381558583  0.37098213521480405  1.0000
  H   H62       1.0  0.20683699882758133  0.5782656941199146  0.12901786441130428  1.0000
  H   H63       1.0  0.2068369984951333  0.9217343062156326  0.6290178646818382  1.0000
  H   H64       1.0  0.7931630007179241  0.4217343059113038  0.8709821354853381  1.0000
  H   H65       1.0  0.9012814051378523  0.20504981972588893  0.43064658639975417  1.0000
  H   H66       1.0  0.09871859487920302  0.7050498200302177  0.06935341381983481  1.0000
  H   H67       1.0  0.09871859579961627  0.7949501803053295  0.5693534134993667  1.0000
  H   H68       1.0  0.9012814046663022  0.2949501800010007  0.9306465860768075  1.0000
  C   C1        1.0  0.46856459777040055  0.39898211304922865  0.3559044646701505  1.0000
  C   C2        1.0  0.5314354022466548  0.8989821127761182  0.14409553554943844  1.0000
  C   C3        1.0  0.5314354017751048  0.6010178869819898  0.6440955352264918  1.0000
  C   C4        1.0  0.4685645974379524  0.10101788725510014  0.8559044649406845  1.0000
  C   C5        1.0  0.3836743234540401  0.3995939819969706  0.26936467220165583  1.0000
  C   C6        1.0  0.6163256765630152  0.8995939817238603  0.23063532801793318  1.0000
  C   C7        1.0  0.6163256776225302  0.6004060180342478  0.7306353282909458  1.0000
  C   C8        1.0  0.38367432298249016  0.10040601830735814  0.7693646718787092  1.0000
  C   C9        1.0  0.44127452690728125  0.3270319161379551  0.22679735593741585  1.0000
  C   C10       1.0  0.5587254731097739  0.8270319158648447  0.2732026442821731  1.0000
  C   C11       1.0  0.5587254740301871  0.6729680838932632  0.7732026439617051  1.0000
  C   C12       1.0  0.44127452657483324  0.1729680841663736  0.7267973562079498  1.0000
  C   C13       1.0  0.3795293624325033  0.2543183227421377  0.2682529225563782  1.0000
  C   C14       1.0  0.6204706375845519  0.7543183224690273  0.23174707766321073  1.0000
  C   C15       1.0  0.6204706386440669  0.7456816772890806  0.7317470779362233  1.0000
  C   C16       1.0  0.37952936196095344  0.2456816769847519  0.7682529222334317  1.0000
  C   C17       1.0  0.4540983099673403  0.25304544131128365  0.35626482752434435  1.0000
  C   C18       1.0  0.5459016899106132  0.7530454416156125  0.14373517210176398  1.0000
  C   C19       1.0  0.5459016895781651  0.7469545587199348  0.643735172372298  1.0000
  C   C20       1.0  0.4540983096348922  0.24695455841560598  0.8562648277948783  1.0000
  C   C21       1.0  0.4056174930710952  0.3273246766265877  0.39864773899003875  1.0000
  C   C22       1.0  0.5943825069459601  0.8273246763534773  0.10135226122955027  1.0000
  C   C23       1.0  0.594382506613512  0.6726753234046307  0.6013522615000843  1.0000
  C   C24       1.0  0.4056174925995453  0.17267532367774102  0.8986477386670921  1.0000
  C   C25       1.0  0.04565013740827546  0.3604758456399652  0.5506290739910811  1.0000
  C   C26       1.0  0.954349863196745  0.8604758453668547  0.9493709261785739  1.0000
  C   C27       1.0  0.9543498635291929  0.6395241543912532  0.4493709259080399  1.0000
  C   C28       1.0  0.045650136348760355  0.13952415466436358  0.05062907371806848  1.0000
  C   C29       1.0  0.09953261854784869  0.43389899913707325  0.5762960683527059  1.0000
  C   C30       1.0  0.9004673806652087  0.933898998863963  0.9237039318144705  1.0000
  C   C31       1.0  0.9004673809976567  0.5661010008941452  0.42370393154393643  1.0000
  C   C32       1.0  0.09953261888029674  0.06610100116725548  0.07629606808217192  1.0000
  C   C33       1.0  0.06988301532922517  0.4566225770026116  0.6531081518614773  1.0000
  C   C34       1.0  0.9301169852757952  0.9566225767295011  0.8468918483081777  1.0000
  C   C35       1.0  0.930116985747345  0.5433774230286068  0.3468918486311242  1.0000
  C   C36       1.0  0.06988301426971008  0.04337742272427803  0.15310815158846475  1.0000
  C   C37       1.0  0.9896410198150155  0.40439708033505384  0.7024872563008873  1.0000
  C   C38       1.0  0.010358980790004753  0.9043970800619434  0.7975127438687677  1.0000
  C   C39       1.0  0.010358979869591507  0.5956029196961645  0.2975127441892357  1.0000
  C   C40       1.0  0.9896410201474636  0.09560291996927489  0.2024872560303533  1.0000
  C   C41       1.0  0.940904941374149  0.3312468950226474  0.674259815563089  1.0000
  C   C42       1.0  0.0590950576998064  0.8312468953269762  0.8257401840106068  1.0000
  C   C43       1.0  0.05909505817135626  0.6687531044311318  0.3257401843335534  1.0000
  C   C44       1.0  0.940904941845699  0.1687531047042422  0.1742598158860356  1.0000
  C   C45       1.0  0.8357587520310784  0.11260176101307481  0.5951700139354354  1.0000
  C   C46       1.0  0.16424124718197883  0.6126017607399644  0.9048299862317407  1.0000
  C   C47       1.0  0.1642412476535287  0.8873982390181436  0.4048299865546874  1.0000
  C   C48       1.0  0.8357587523635265  0.3873982392912539  0.09517001366490162  1.0000
  C   C49       1.0  0.775691544597076  0.040360195241493944  0.5666939744592507  1.0000
  C   C50       1.0  0.22430845461598128  0.5403601949683836  0.9333060257079256  1.0000
  C   C51       1.0  0.22430845494842935  0.9596398047897244  0.43330602543739166  1.0000
  C   C52       1.0  0.7756915449295241  0.4596398050628348  0.06669397418871671  1.0000
  C   C53       1.0  0.7596329187174284  0.026838090424179544  0.48508634259749495  1.0000
  C   C54       1.0  0.24036708116052488  0.5268380907285083  0.014913657028613381  1.0000
  C   C55       1.0  0.24036708222004002  0.9731619096070389  0.5149136573016261  1.0000
  C   C56       1.0  0.7596329183849805  0.4731619093027101  0.985086342868029  1.0000
  C   C57       1.0  0.8056068869952715  0.0862288168709115  0.43498815020932335  1.0000
  C   C58       1.0  0.19439311288268196  0.5862288165978011  0.06501184941678499  1.0000
  C   C59       1.0  0.19439311394219708  0.9137711831603068  0.5650118496897976  1.0000
  C   C60       1.0  0.8056068866628234  0.4137711834334173  0.9349881504798574  1.0000
  C   C61       1.0  0.864531647153049  0.15686287061103144  0.467894873590796  1.0000
  C   C62       1.0  0.13546835286400627  0.6568628703379211  0.032105126628792974  1.0000
  C   C63       1.0  0.13546835378441952  0.8431371294201869  0.532105126308325  1.0000
  C   C64       1.0  0.8645316468206009  0.3431371296932973  0.96789487386133  1.0000
  N   N1        1.0  0.9696025504106223  0.31120518184645796  0.5997087393430929  1.0000
  N   N2        1.0  0.030397448802435088  0.8112051815733476  0.9002912608240835  1.0000
  N   N3        1.0  0.030397449273984956  0.6887948181847604  0.40029126114703006  1.0000
  N   N4        1.0  0.9696025507430703  0.18879481845787077  0.09970873907255894  1.0000
  N   N5        1.0  0.8785487353276805  0.1698203947040201  0.5465477535608845  1.0000
  N   N6        1.0  0.12145126527733982  0.6698203950083489  0.9534522466087705  1.0000
  N   N7        1.0  0.12145126421782472  0.8301796053271983  0.4534522463357579  1.0000
  N   N8        1.0  0.8785487356601286  0.3301796050228695  0.04654775329035048  1.0000
  Cl  Cl1       1.0  0.46311361825187775  0.1708404415206346  0.22045032453509442  1.0000
  Cl  Cl2       1.0  0.5368863817651774  0.6708404418249634  0.27954967568449457  1.0000
  Cl  Cl3       1.0  0.5368863812936275  0.8291595579331447  0.779549675361548  1.0000
  Cl  Cl4       1.0  0.4631136177803279  0.32915955820625503  0.7204503242121478  1.0000
  Cl  Cl5       1.0  0.3529907273915857  0.17227093727425566  0.40318941171244  1.0000
  Cl  Cl6       1.0  0.6470092724863676  0.6722709370011453  0.09681058791366837  1.0000
  Cl  Cl7       1.0  0.6470092721539197  0.8277290627569627  0.5968105881842024  1.0000
  Cl  Cl8       1.0  0.3529907284511008  0.3277290630300731  0.9031894119854526  1.0000
  Cl  Cl9       1.0  0.5145245693938415  0.3258170511722822  0.4985936846734057  1.0000
  Cl  Cl10      1.0  0.48547543062321374  0.8258170514766109  0.0014063155461833262  1.0000
  Cl  Cl11      1.0  0.48547543015166383  0.6741829488589361  0.5014063152232366  1.0000
  Cl  Cl12      1.0  0.5145245704533565  0.1741829485546074  0.9985936849464182  1.0000
  Cl  Cl13      1.0  0.39828230527716374  0.48417170692715605  0.4047208041453257  1.0000
  Cl  Cl14      1.0  0.6017176946007895  0.9841717072314848  0.0952791954807827  1.0000
  Cl  Cl15      1.0  0.6017176956603048  0.5158282931040623  0.5952791957537953  1.0000
  Cl  Cl16      1.0  0.39828230494471567  0.01582829279973354  0.9047208044158596  1.0000
  Cl  Cl17      1.0  0.4642227214114374  0.4834568701870126  0.22118462413663253  1.0000
  Cl  Cl18      1.0  0.535777278466516  0.9834568704913413  0.2788153754894758  1.0000
  Cl  Cl19      1.0  0.5357772795260312  0.5165431292667666  0.7788153757624884  1.0000
  Cl  Cl20      1.0  0.4642227210789893  0.01654312953987704  0.7211846244071665  1.0000
  Cl  Cl21      1.0  0.33899219821447035  0.3276061499123688  0.12582200394732868  1.0000
  Cl  Cl22      1.0  0.6610078018025848  0.8276061496392584  0.37417799627226034  1.0000
  Cl  Cl23      1.0  0.661007801331035  0.6723938501188496  0.8741779959493138  1.0000
  Cl  Cl24      1.0  0.33899219927398544  0.17239385039195995  0.6258220042203412  1.0000
  Br  Br1       1.0  0.9222687485741975  0.3266009311554066  0.31939066029984653  1.0000
  Br  Br2       1.0  0.07773125144285763  0.8266009308822962  0.18060933991974243  1.0000
  Br  Br3       1.0  0.07773125111040957  0.6733990688758118  0.6806093401902764  1.0000
  Br  Br4       1.0  0.9222687494946108  0.17339906914892217  0.8193906599793785  1.0000
