data_image0
_chemical_formula_structural       H36C32N4Cl16
_chemical_formula_sum              "H36 C32 N4 Cl16"
_cell_length_a       14.540396515441559
_cell_length_b       9.229724099294927
_cell_length_c       8.152669158314383
_cell_angle_alpha    90.0
_cell_angle_beta     93.53481532013107
_cell_angle_gamma    90.0

_space_group_name_H-M_alt    "P 1"
_space_group_IT_number       1

loop_
  _space_group_symop_operation_xyz
  'x, y, z'

loop_
  _atom_site_type_symbol
  _atom_site_label
  _atom_site_symmetry_multiplicity
  _atom_site_fract_x
  _atom_site_fract_y
  _atom_site_fract_z
  _atom_site_occupancy
  H   H1        1.0  0.2216607716092645  0.0  0.4615606628646149  1.0000
  H   H2        1.0  0.7783392284810863  0.0  0.5384393380681816  1.0000
  H   H3        1.0  0.7216607718608823  0.5000000000381958  0.4615606630751355  1.0000
  H   H4        1.0  0.2783392282294684  0.5000000000381958  0.5384393378576608  1.0000
  H   H5        1.0  0.19909411239156902  0.22643041303473524  0.3293363312937955  1.0000
  H   H6        1.0  0.8009058876987817  0.22643041303473524  0.6706636696390008  1.0000
  H   H7        1.0  0.6990941125957068  0.7264304130729311  0.3293363302754184  1.0000
  H   H8        1.0  0.30090588744716384  0.7264304130729311  0.6706636694284802  1.0000
  H   H9        1.0  0.8009058876987817  0.7735695870416563  0.6706636696390008  1.0000
  H   H10       1.0  0.19909411239156902  0.7735695870416563  0.3293363312937955  1.0000
  H   H11       1.0  0.30090588744716384  0.2735695870034605  0.6706636694284802  1.0000
  H   H12       1.0  0.6990941125957068  0.2735695870034605  0.3293363302754184  1.0000
  H   H13       1.0  0.14359688273652832  0.23476109867309292  0.031773786542103465  1.0000
  H   H14       1.0  0.8564031173063423  0.23476109867309292  0.9682262131617951  1.0000
  H   H15       1.0  0.6435968823007339  0.7347610987112887  0.03177378676155475  1.0000
  H   H16       1.0  0.3564031177896169  0.7347610987112887  0.9682262141712416  1.0000
  H   H17       1.0  0.8564031173063423  0.7652389014032988  0.9682262131617951  1.0000
  H   H18       1.0  0.14359688273652832  0.7652389014032988  0.031773786542103465  1.0000
  H   H19       1.0  0.3564031177896169  0.26523890136510286  0.9682262141712416  1.0000
  H   H20       1.0  0.6435968823007339  0.26523890136510286  0.03177378676155475  1.0000
  H   H21       1.0  0.11524195010545775  0.0  0.8819044904164327  1.0000
  H   H22       1.0  0.884758049984893  0.0  0.1180955105163636  1.0000
  H   H23       1.0  0.6152419503095955  0.5000000000381958  0.8819044893980557  1.0000
  H   H24       1.0  0.38475804973327515  0.5000000000381958  0.11809551030584302  1.0000
  H   H25       1.0  0.36832583365471283  0.0  0.4131803537138274  1.0000
  H   H26       1.0  0.6316741663881579  0.0  0.5868196459900713  1.0000
  H   H27       1.0  0.8683258332189185  0.5000000000381958  0.4131803539332786  1.0000
  H   H28       1.0  0.1316741668714323  0.5000000000381958  0.5868196469995178  1.0000
  H   H29       1.0  0.5506709945356989  0.14565066469350849  0.33990757337140814  1.0000
  H   H30       1.0  0.4493290055071717  0.14565066469350849  0.6600924263324904  1.0000
  H   H31       1.0  0.05067099428408111  0.6456506647317043  0.33990757316088754  1.0000
  H   H32       1.0  0.9493290057587896  0.6456506647317043  0.6600924265430111  1.0000
  H   H33       1.0  0.4493290055071717  0.854349335382883  0.6600924263324904  1.0000
  H   H34       1.0  0.5506709945356989  0.854349335382883  0.33990757337140814  1.0000
  H   H35       1.0  0.9493290057587896  0.3543493353446873  0.6600924265430111  1.0000
  H   H36       1.0  0.05067099428408111  0.3543493353446873  0.33990757316088754  1.0000
  C   C1        1.0  0.18396139843779327  0.12815956872322565  0.25842692085081476  1.0000
  C   C2        1.0  0.8160386016525574  0.12815956872322565  0.7415730800819815  1.0000
  C   C3        1.0  0.6839613986894112  0.6281595687614214  0.2584269210613353  1.0000
  C   C4        1.0  0.31603860140093953  0.6281595687614214  0.741573079871461  1.0000
  C   C5        1.0  0.8160386016525574  0.8718404313531659  0.7415730800819815  1.0000
  C   C6        1.0  0.18396139843779327  0.8718404313531659  0.25842692085081476  1.0000
  C   C7        1.0  0.31603860140093953  0.37184043131497013  0.741573079871461  1.0000
  C   C8        1.0  0.6839613986894112  0.37184043131497013  0.2584269210613353  1.0000
  C   C9        1.0  0.1538342213298417  0.13105803456166207  0.09395248074415873  1.0000
  C   C10       1.0  0.846165778713029  0.13105803456166207  0.9060475189597399  1.0000
  C   C11       1.0  0.6538342215814595  0.6310580345998579  0.09395248095467933  1.0000
  C   C12       1.0  0.34616577850889113  0.6310580345998579  0.9060475199781169  1.0000
  C   C13       1.0  0.846165778713029  0.8689419655147296  0.9060475189597399  1.0000
  C   C14       1.0  0.1538342213298417  0.8689419655147296  0.09395248074415873  1.0000
  C   C15       1.0  0.34616577850889113  0.3689419654765337  0.9060475199781169  1.0000
  C   C16       1.0  0.6538342215814595  0.3689419654765337  0.09395248095467933  1.0000
  C   C17       1.0  0.13825080548323906  0.0  0.011200505707959134  1.0000
  C   C18       1.0  0.8617491945596315  0.0  0.9887994939959395  1.0000
  C   C19       1.0  0.6382508057348569  0.5000000000381958  0.011200505918479734  1.0000
  C   C20       1.0  0.3617491943080137  0.5000000000381958  0.9887994937854189  1.0000
  C   C21       1.0  0.43449147610819305  0.0  0.35550868589665596  1.0000
  C   C22       1.0  0.5655085239346774  0.0  0.6444913138072426  1.0000
  C   C23       1.0  0.9344914763598109  0.5000000000381958  0.3555086861071766  1.0000
  C   C24       1.0  0.06550852368305965  0.5000000000381958  0.644491313596722  1.0000
  C   C25       1.0  0.4878416860672287  0.13700501622758135  0.4073466554574407  1.0000
  C   C26       1.0  0.5121583140231221  0.13700501622758135  0.5926533454753556  1.0000
  C   C27       1.0  0.9878416862713665  0.6370050162657771  0.40734665443906365  1.0000
  C   C28       1.0  0.012158313771504222  0.6370050162657771  0.592653345264835  1.0000
  C   C29       1.0  0.5121583140231221  0.8629949838488102  0.5926533454753556  1.0000
  C   C30       1.0  0.4878416860672287  0.8629949838488102  0.4073466554574407  1.0000
  C   C31       1.0  0.012158313771504222  0.36299498381061446  0.592653345264835  1.0000
  C   C32       1.0  0.9878416862713665  0.36299498381061446  0.40734665443906365  1.0000
  N   N1        1.0  0.19687326259213417  0.0  0.3356564587855572  1.0000
  N   N2        1.0  0.8031267374507365  0.0  0.6643435409183415  1.0000
  N   N3        1.0  0.696873262843752  0.5000000000381958  0.3356564589960778  1.0000
  N   N4        1.0  0.30312673719911865  0.5000000000381958  0.6643435407078208  1.0000
  Cl  Cl1       1.0  0.4101867039890361  0.0  0.13740636292655786  1.0000
  Cl  Cl2       1.0  0.5898132960538346  0.0  0.8625936367773407  1.0000
  Cl  Cl3       1.0  0.9101867035532418  0.5000000000381958  0.13740636314600915  1.0000
  Cl  Cl4       1.0  0.08981329584969674  0.5000000000381958  0.8625936377957178  1.0000
  Cl  Cl5       1.0  0.41753482782131646  0.29217775970204857  0.3557492826356299  1.0000
  Cl  Cl6       1.0  0.5824651722215541  0.29217775970204857  0.6442507170682686  1.0000
  Cl  Cl7       1.0  0.9175348280729343  0.7921777597402444  0.3557492828461505  1.0000
  Cl  Cl8       1.0  0.08246517201741639  0.7921777597402444  0.6442507180866458  1.0000
  Cl  Cl9       1.0  0.5824651722215541  0.707822240374343  0.6442507170682686  1.0000
  Cl  Cl10      1.0  0.41753482782131646  0.707822240374343  0.3557492826356299  1.0000
  Cl  Cl11      1.0  0.08246517201741639  0.20782224033614718  0.6442507180866458  1.0000
  Cl  Cl12      1.0  0.9175348280729343  0.20782224033614718  0.3557492828461505  1.0000
  Cl  Cl13      1.0  0.2860122816840148  0.0  0.6827269348988472  1.0000
  Cl  Cl14      1.0  0.7139877183588558  0.0  0.3172730648050514  1.0000
  Cl  Cl15      1.0  0.7860122812482203  0.5000000000381958  0.6827269351182985  1.0000
  Cl  Cl16      1.0  0.21398771879465026  0.5000000000381958  0.3172730645856002  1.0000
