data_image0
_chemical_formula_structural       H72C48N4O8F8I8
_chemical_formula_sum              "H72 C48 N4 O8 F8 I8"
_cell_length_a       9.494763481204878
_cell_length_b       8.557843244397064
_cell_length_c       19.922463449281373
_cell_angle_alpha    90.0
_cell_angle_beta     95.2579161032035
_cell_angle_gamma    90.0

_space_group_name_H-M_alt    "P 1"
_space_group_IT_number       1

loop_
  _space_group_symop_operation_xyz
  'x, y, z'

loop_
  _atom_site_type_symbol
  _atom_site_label
  _atom_site_symmetry_multiplicity
  _atom_site_fract_x
  _atom_site_fract_y
  _atom_site_fract_z
  _atom_site_occupancy
  H   H1        1.0  0.4839398883651994  0.7554851433196015  0.9553370553607098  1.0000
  H   H2        1.0  0.01606011222065627  0.25548514357650415  0.5446629445198117  1.0000
  H   H3        1.0  0.5160601119165736  0.244514857335112  0.04466294492860196  1.0000
  H   H4        1.0  0.983939887964898  0.7445148570782094  0.4553370552654332  1.0000
  H   H5        1.0  0.5786922199455299  0.9283771299739145  0.9778390919360306  1.0000
  H   H6        1.0  0.9213077799023818  0.42837712906229847  0.5221609082457351  1.0000
  H   H7        1.0  0.42130778033624305  0.07162287068079896  0.022160908353281158  1.0000
  H   H8        1.0  0.07869222028317235  0.5716228704238964  0.47783909153950993  1.0000
  H   H9        1.0  0.5582527948034204  0.7800717130885392  0.03968067430641873  1.0000
  H   H10       1.0  0.9417472050780512  0.2800717133454418  0.4603193258876166  1.0000
  H   H11       1.0  0.4417472053821338  0.21992828639765563  0.9603193254788261  1.0000
  H   H12       1.0  0.05825279415044517  0.7199282873092717  0.5396806744013581  1.0000
  H   H13       1.0  0.7664480922512393  0.6194183228900063  0.06397344221478779  1.0000
  H   H14       1.0  0.7335519075340134  0.11941832314690891  0.43602655747518065  1.0000
  H   H15       1.0  0.2335519079343148  0.38058167659618847  0.936026557570457  1.0000
  H   H16       1.0  0.26644809159826416  0.8805816763392859  0.5639734423097272  1.0000
  H   H17       1.0  0.8898482746734014  0.5872326854421208  0.9970725120091825  1.0000
  H   H18       1.0  0.6101517250782914  0.08723268569902343  0.5029274876685164  1.0000
  H   H19       1.0  0.11015172551215269  0.41276731404407396  0.0029274877760624395  1.0000
  H   H20       1.0  0.3898482751072628  0.9127673137871714  0.49707251211672865  1.0000
  H   H21       1.0  0.6651910859401833  0.7403933431648653  0.7667896878300905  1.0000
  H   H22       1.0  0.8348089149610054  0.24039334342176794  0.7332103123520124  1.0000
  H   H23       1.0  0.3348089142453709  0.2596066574898482  0.23321031195515446  1.0000
  H   H24       1.0  0.16519108532076782  0.7596066572329456  0.2667896879372994  1.0000
  H   H25       1.0  0.8029613874345849  0.8770065197108876  0.7879717790577876  1.0000
  H   H26       1.0  0.697038612413327  0.37700651996779017  0.7120282211239781  1.0000
  H   H27       1.0  0.1970386128471882  0.12299347977530725  0.21202822123152415  1.0000
  H   H28       1.0  0.3029613878684462  0.6229934795184047  0.2879717791653337  1.0000
  H   H29       1.0  0.6458448206549486  0.01201357480663265  0.710602883398319  1.0000
  H   H30       1.0  0.8541551791929631  0.5120135745497301  0.7893971167834466  1.0000
  H   H31       1.0  0.3541551785735478  0.9879864258480809  0.28939711689065556  1.0000
  H   H32       1.0  0.145844820992591  0.4879864249364648  0.21060288300179836  1.0000
  H   H33       1.0  0.6213979580410681  0.09317441290152752  0.7909362616667546  1.0000
  H   H34       1.0  0.8786020418068438  0.593174412644625  0.7090637385150111  1.0000
  H   H35       1.0  0.37860204224070493  0.906825587753186  0.20906373862255728  1.0000
  H   H36       1.0  0.12139795732543383  0.4068255868415699  0.29093626126989663  1.0000
  H   H37       1.0  0.41340204806790176  0.8591268196941597  0.8394328007090688  1.0000
  H   H38       1.0  0.08659795251795391  0.35912681878254366  0.6605671991714527  1.0000
  H   H39       1.0  0.5865979522138713  0.14087318096055373  0.160567199580243  1.0000
  H   H40       1.0  0.9134020476676004  0.6408731807036512  0.3394328006137922  1.0000
  H   H41       1.0  0.26143974249077506  0.9531249857071521  0.7960847362805918  1.0000
  H   H42       1.0  0.23856025704180395  0.4531249859640547  0.7039152635995926  1.0000
  H   H43       1.0  0.7385602576947792  0.04687501377904272  0.20391526350465314  1.0000
  H   H44       1.0  0.7614397431437503  0.5468750135221402  0.29608473618565245  1.0000
  H   H45       1.0  0.4019138507717352  0.06866590836245226  0.8379329566335229  1.0000
  H   H46       1.0  0.09808614876084379  0.5686659081055496  0.6620670432466614  1.0000
  H   H47       1.0  0.5980861483605423  0.9313340911237425  0.16206704315138495  1.0000
  H   H48       1.0  0.9019138514247105  0.43133409138064516  0.33793295653858346  1.0000
  H   H49       1.0  0.41872003137564084  0.20987007458636128  0.7331527022095498  1.0000
  H   H50       1.0  0.08127996825315698  0.7098700754979774  0.7668472981747013  1.0000
  H   H51       1.0  0.5812799678528554  0.7901299248998336  0.26684729807942487  1.0000
  H   H52       1.0  0.9187200320286161  0.2901299251567361  0.2331527021146104  1.0000
  H   H53       1.0  0.2774901015554574  0.08858723025761761  0.6940136790150617  1.0000
  H   H54       1.0  0.2225098991266172  0.588587230000715  0.8059863213695265  1.0000
  H   H55       1.0  0.7225098987263158  0.9114127703970959  0.30598632127425  1.0000
  H   H56       1.0  0.7774901011551559  0.4114127694854798  0.19401367891978524  1.0000
  H   H57       1.0  0.44400215213892313  0.10473846206365639  0.6575680501365563  1.0000
  H   H58       1.0  0.055997847393655854  0.6047384618067537  0.8424319497436281  1.0000
  H   H59       1.0  0.5559978470895732  0.8952615385910572  0.34243195015241834  1.0000
  H   H60       1.0  0.9440021527918984  0.3952615388479597  0.15756805004161692  1.0000
  H   H61       1.0  0.4745765063577927  0.8210212175363376  0.6618138216763222  1.0000
  H   H62       1.0  0.025423493174786305  0.32102121662472155  0.8381861782038621  1.0000
  H   H63       1.0  0.525423492774485  0.17897878311837584  0.3381861781085857  1.0000
  H   H64       1.0  0.9745765071069867  0.6789787828614733  0.16181382208544956  1.0000
  H   H65       1.0  0.30011186596196227  0.8197318295813498  0.6907068461812232  1.0000
  H   H66       1.0  0.19988813357061672  0.3197318286697337  0.8092931536989612  1.0000
  H   H67       1.0  0.6998881331703152  0.18026817107336374  0.30929315360368453  1.0000
  H   H68       1.0  0.8001118666149375  0.6802681708164612  0.19070684608628388  1.0000
  H   H69       1.0  0.4428122014952594  0.7167095148670405  0.7372931713379287  1.0000
  H   H70       1.0  0.0571877980373196  0.21670951512394312  0.7627068285422556  1.0000
  H   H71       1.0  0.5571877986902949  0.283290485787673  0.2627068284473162  1.0000
  H   H72       1.0  0.9428122011911769  0.7832904855307704  0.23729317174671902  1.0000
  C   C1        1.0  0.5757072728555491  0.8018047286029059  0.9868581459009598  1.0000
  C   C2        1.0  0.9242927279494205  0.3018047288598085  0.5131418537770762  1.0000
  C   C3        1.0  0.424292727330005  0.1981952708832889  0.013141853884285147  1.0000
  C   C4        1.0  0.07570727223613369  0.698195271794905  0.48685814600816874  1.0000
  C   C5        1.0  0.7094210448845167  0.7258457221761881  0.9695322252637721  1.0000
  C   C6        1.0  0.7905789559204529  0.22584572243309073  0.5304677744142637  1.0000
  C   C7        1.0  0.29057895530103744  0.2741542773100067  0.0304677745214727  1.0000
  C   C8        1.0  0.2094210442651013  0.7741542782216227  0.46953222537098127  1.0000
  C   C9        1.0  0.7940238541875599  0.6401504285074071  0.012833615593196733  1.0000
  C   C10       1.0  0.7059761456939116  0.14015042759579102  0.4871663846008385  1.0000
  C   C11       1.0  0.20597614494471758  0.3598495721473064  0.9871663841917111  1.0000
  C   C12       1.0  0.29402385458786146  0.8598495718904038  0.5128336156884733  1.0000
  C   C13       1.0  0.7513290479236845  0.7421959994603169  0.8998684173242885  1.0000
  C   C14       1.0  0.7486709519242273  0.24219599854870077  0.6001315828574771  1.0000
  C   C15       1.0  0.24867095235808861  0.25780400119439667  0.10013158296502328  1.0000
  C   C16       1.0  0.25132904835754577  0.757804000937494  0.3998684174318346  1.0000
  C   C17       1.0  0.690110876407641  0.8527859229927008  0.7918897779692989  1.0000
  C   C18       1.0  0.8098891244935477  0.3527859220810847  0.7081102222128038  1.0000
  C   C19       1.0  0.3098891237779132  0.1472140776620127  0.20811022181594604  1.0000
  C   C20       1.0  0.1901108757882255  0.64721407740511  0.29188977807650784  1.0000
  C   C21       1.0  0.6068002883030854  0.9875005545974334  0.7597218929698573  1.0000
  C   C22       1.0  0.8931997114486074  0.4875005536858173  0.7402781067078416  1.0000
  C   C23       1.0  0.3931997118824687  0.012499446057280098  0.24027810681538767  1.0000
  C   C24       1.0  0.10680028873694673  0.5124994458003775  0.25972189307740334  1.0000
  C   C25       1.0  0.37570586642583376  0.9607754658725682  0.8097814737238669  1.0000
  C   C26       1.0  0.1242941331067452  0.4607754661294708  0.6902185261563174  1.0000
  C   C27       1.0  0.6242941338559395  0.03922453361362661  0.19021852656544494  1.0000
  C   C28       1.0  0.8757058660255322  0.539224533356724  0.3097814736285903  1.0000
  C   C29       1.0  0.3922509459356104  0.10288127099972731  0.7043062590657357  1.0000
  C   C30       1.0  0.10774905359696857  0.6028812707428247  0.7956937408144485  1.0000
  C   C31       1.0  0.6077490542499439  0.8971187284864675  0.29569374071950927  1.0000
  C   C32       1.0  0.8922509466848045  0.39711872874337006  0.20430625947486314  1.0000
  C   C33       1.0  0.414147075308133  0.8194290757301741  0.7060493435754451  1.0000
  C   C34       1.0  0.0858529252777227  0.3194290759870766  0.7939506563050762  1.0000
  C   C35       1.0  0.5858529248774212  0.18057092492453952  0.29395065620979977  1.0000
  C   C36       1.0  0.9141470749078316  0.6805709246676369  0.20604934348016865  1.0000
  C   C37       1.0  0.4030977353542068  0.39546868099223315  0.46505539092685494  1.0000
  C   C38       1.0  0.09690226526520868  0.8954686807353306  0.03494460896593614  1.0000
  C   C39       1.0  0.5969022648313473  0.6045313184939617  0.53494460885839  1.0000
  C   C40       1.0  0.9030977350165645  0.10453131875086427  0.9650553913233756  1.0000
  C   C41       1.0  0.4073870011053667  0.4138530139961131  0.5346656913883667  1.0000
  C   C42       1.0  0.09261299842721232  0.9138530137392105  0.9653343084918178  1.0000
  C   C43       1.0  0.5926129981231297  0.5861469854900817  0.46533430890060784  1.0000
  C   C44       1.0  0.907387001758342  0.08614698574698433  0.034665691293427316  1.0000
  C   C45       1.0  0.5025797398049459  0.516089728903555  0.5688561789912866  1.0000
  C   C46       1.0  0.9974202599467472  0.01608972916045754  0.9311438206864123  1.0000
  C   C47       1.0  0.4974202593273317  0.4839102705826399  0.43114382079362124  1.0000
  C   C48       1.0  0.002579740238807086  0.9839102703257373  0.06885617909883265  1.0000
  N   N1        1.0  0.44769376531151805  0.9654363551715298  0.7457513166397918  1.0000
  N   N2        1.0  0.05230623422106088  0.4654363554284323  0.7542486832403925  1.0000
  N   N3        1.0  0.5523062338207594  0.03456364431466513  0.25424868314511595  1.0000
  N   N4        1.0  0.9476937660607121  0.5345636440577625  0.24575131704891923  1.0000
  O   O1        1.0  0.8531783274128635  0.6786687316109158  0.8775712735180011  1.0000
  O   O2        1.0  0.6468216723388296  0.17866873186781837  0.6224287261596977  1.0000
  O   O3        1.0  0.14682167277269087  0.3213312690437977  0.12242872626724383  1.0000
  O   O4        1.0  0.35317832784672465  0.8213312687868952  0.3775712736255472  1.0000
  O   O5        1.0  0.6628917543507581  0.8392336766278318  0.8618596809248106  1.0000
  O   O6        1.0  0.8371082454971537  0.3392336768847343  0.638140319256955  1.0000
  O   O7        1.0  0.337108245931015  0.1607663228583631  0.13814031936450108  1.0000
  O   O8        1.0  0.16289175478461937  0.6607663237699792  0.36185968103235683  1.0000
  F   F1        1.0  0.31707098364624664  0.3321524230840555  0.5707267222688159  1.0000
  F   F2        1.0  0.18292901693960903  0.8321524239956717  0.9292732776117054  1.0000
  F   F3        1.0  0.6829290166355265  0.6678475764021393  0.42927327802049575  1.0000
  F   F4        1.0  0.8170709832459452  0.16784757665904187  0.07072672217353942  1.0000
  F   F5        1.0  0.502213867514193  0.5273237229432265  0.6370566906075296  1.0000
  F   F6        1.0  0.9977861323337189  0.02732372320012908  0.8629433095742362  1.0000
  F   F7        1.0  0.49778613267136135  0.4726762765429683  0.36294330917771545  1.0000
  F   F8        1.0  0.002213867948054165  0.9726762774545845  0.1370566907150756  1.0000
  I   I1        1.0  0.9959194508596976  0.051102504160300447  0.32820078154570786  1.0000
  I   I2        1.0  0.5040805490217741  0.5511025039033979  0.1717992186483274  1.0000
  I   I3        1.0  0.004080548368798861  0.9488974953258944  0.6717992187432668  1.0000
  I   I4        1.0  0.49591945125999903  0.44889749558279696  0.8282007816409843  1.0000
  I   I5        1.0  0.2518479394258833  0.24458137760005988  0.412605580846948  1.0000
  I   I6        1.0  0.24815206128975106  0.7445813773431572  0.08739441954990984  1.0000
  I   I7        1.0  0.7481520608558898  0.7554186230546537  0.5873944194423637  1.0000
  I   I8        1.0  0.7518479389920221  0.2554186221430375  0.9126055807394018  1.0000
