data_image0
_chemical_formula_structural       H56C34N2O4F4I4
_chemical_formula_sum              "H56 C34 N2 O4 F4 I4"
_cell_length_a       8.361261070676633
_cell_length_b       9.304163054770141
_cell_length_c       14.43050370469729
_cell_angle_alpha    99.44088459145935
_cell_angle_beta     95.75480776540316
_cell_angle_gamma    96.4469998897324

_space_group_name_H-M_alt    "P 1"
_space_group_IT_number       1

loop_
  _space_group_symop_operation_xyz
  'x, y, z'

loop_
  _atom_site_type_symbol
  _atom_site_label
  _atom_site_symmetry_multiplicity
  _atom_site_fract_x
  _atom_site_fract_y
  _atom_site_fract_z
  _atom_site_occupancy
  H   H1        1.0  0.7749348548768199  0.5079821646610555  0.08570595741657472  1.0000
  H   H2        1.0  0.22506514567770747  0.49201783611710875  0.9142940425050912  1.0000
  H   H3        1.0  0.7224799590274893  0.47956388726910626  0.1989540129110869  1.0000
  H   H4        1.0  0.27752004138678854  0.5204361124273716  0.8010459870103314  1.0000
  H   H5        1.0  0.8311127812564953  0.3533661961793696  0.1339913208635974  1.0000
  H   H6        1.0  0.16888721796305683  0.6466338035225687  0.8660086790610599  1.0000
  H   H7        1.0  0.9901774926994095  0.7119005935800193  0.1043573411324789  1.0000
  H   H8        1.0  0.009822506520142663  0.28809940612191903  0.8956426587921785  1.0000
  H   H9        1.0  0.15827588107773516  0.7373204387142687  0.20294034778299758  1.0000
  H   H10       1.0  0.8417241181418169  0.26267956098766976  0.7970596521416599  1.0000
  H   H11       1.0  0.38164171731760854  0.6017893965969596  0.4229587437506152  1.0000
  H   H12       1.0  0.6183582819019436  0.39821060310497874  0.5770412561740422  1.0000
  H   H13       1.0  0.23104975325517316  0.44759484537018396  0.417617887637329  1.0000
  H   H14       1.0  0.7689502471591048  0.552405154326294  0.5823821122840892  1.0000
  H   H15       1.0  0.034531581667446236  0.6334087146890048  0.47047568941528406  1.0000
  H   H16       1.0  0.9654684187468318  0.36659128500747307  0.5295243105061341  1.0000
  H   H17       1.0  0.18172579151116947  0.5925689390378869  0.5566646717288208  1.0000
  H   H18       1.0  0.8182742077083827  0.4074310606640516  0.44333532819583665  1.0000
  H   H19       1.0  0.1524143789838118  0.9830469470646824  0.617079324007402  1.0000
  H   H20       1.0  0.847585620528229  0.016953053913398162  0.38292067662519425  1.0000
  H   H21       1.0  0.10871950445828034  0.8048804575753806  0.6502404160111718  1.0000
  H   H22       1.0  0.8912804959559976  0.19511954212109722  0.34975958391024653  1.0000
  H   H23       1.0  0.9872377931412352  0.8504287756806032  0.5530239720883856  1.0000
  H   H24       1.0  0.012762206370805492  0.14957122529747746  0.44697602854421054  1.0000
  H   H25       1.0  0.086959708895387  0.8577562710492799  0.4044067880711047  1.0000
  H   H26       1.0  0.9130402915188909  0.14224372864719798  0.5955932118503134  1.0000
  H   H27       1.0  0.2976845118853199  0.8482305016249142  0.39419964301908894  1.0000
  H   H28       1.0  0.702315488528958  0.1517694980715636  0.6058003569023293  1.0000
  H   H29       1.0  0.23822602723404798  0.002815835015196978  0.46945971713161594  1.0000
  H   H30       1.0  0.7617739731802299  0.9971841646812808  0.5305402827898023  1.0000
  H   H31       1.0  0.4722814285056924  0.8059807748856089  0.5165996237330107  1.0000
  H   H32       1.0  0.5277185707138599  0.19401922481632947  0.4834003761916466  1.0000
  H   H33       1.0  0.41662059087860204  0.9576451904587044  0.5936908311287518  1.0000
  H   H34       1.0  0.5833794096759253  0.042354810319459604  0.40630916879291396  1.0000
  H   H35       1.0  0.41540405265824165  0.641692559769689  0.6341797414427073  1.0000
  H   H36       1.0  0.5845959479082755  0.35830744012124505  0.3658202591864021  1.0000
  H   H37       1.0  0.3487379889115731  0.7871919798199989  0.7089835791288898  1.0000
  H   H38       1.0  0.6512620115027049  0.21280801987647885  0.2910164207925285  1.0000
  H   H39       1.0  0.691111491941076  0.7861996993228499  0.6499320323049372  1.0000
  H   H40       1.0  0.3088885072784761  0.21380030037908843  0.35006796761972014  1.0000
  H   H41       1.0  0.6229401571219867  0.9351893759041792  0.7208617917903721  1.0000
  H   H42       1.0  0.3770598420975655  0.06481062379775925  0.27913820813428514  1.0000
  H   H43       1.0  0.6401127033942722  0.6285642396102841  0.7708546861882968  1.0000
  H   H44       1.0  0.3598872958252799  0.37143576009165424  0.22914531373636057  1.0000
  H   H45       1.0  0.5526461628258299  0.7683201642532841  0.8376344052171911  1.0000
  H   H46       1.0  0.4473538363937222  0.23167983544865423  0.1623655947074662  1.0000
  H   H47       1.0  0.9069083911751471  0.7946314946745361  0.7970237789564921  1.0000
  H   H48       1.0  0.09309160923913083  0.20536850502194173  0.2029762209649261  1.0000
  H   H49       1.0  0.8171991311221947  0.9339349311803546  0.8625968660238884  1.0000
  H   H50       1.0  0.18280086823760683  0.0660650696032701  0.1374031339010167  1.0000
  H   H51       1.0  0.7570151314933179  0.7672810798120815  0.9810992442353061  1.0000
  H   H52       1.0  0.2429848689209601  0.23271891988439636  0.018900755686112068  1.0000
  H   H53       1.0  0.9679006900194546  0.8005826696616608  0.9714197053829633  1.0000
  H   H54       1.0  0.0320993105350727  0.19941733111650337  0.028580294538702578  1.0000
  H   H55       1.0  0.8531017328099276  0.6303003251436065  0.9159783481915977  1.0000
  H   H56       1.0  0.14689826654987373  0.36969967564001815  0.08402165173330717  1.0000
  C   C1        1.0  0.816434489021164  0.4701381474151663  0.15089684298614436  1.0000
  C   C2        1.0  0.1835655103386375  0.5298618533684584  0.8491031569387607  1.0000
  C   C3        1.0  0.9726730408060472  0.5591428365300101  0.19761407170937056  1.0000
  C   C4        1.0  0.027326959608230752  0.4408571631664679  0.8023859282120477  1.0000
  C   C5        1.0  0.0442075051622238  0.6761830463558021  0.16710094217975166  1.0000
  C   C6        1.0  0.9557924952520541  0.32381695334067584  0.8328990577416665  1.0000
  C   C7        1.0  0.04469859014880341  0.5115839040752851  0.2837799579929529  1.0000
  C   C8        1.0  0.9553014102654745  0.4884160956211927  0.7162200419284652  1.0000
  C   C9        1.0  0.25047333819163725  0.565624720572421  0.4156799393142933  1.0000
  C   C10       1.0  0.7495266610279148  0.4343752791295174  0.584320060610364  1.0000
  C   C11       1.0  0.16526291501819357  0.6429167831337101  0.49346722870228166  1.0000
  C   C12       1.0  0.8347370855363336  0.35708321764445394  0.5065327712193841  1.0000
  C   C13       1.0  0.10911717496474788  0.8662307394537686  0.5920169266295477  1.0000
  C   C14       1.0  0.8908828242548041  0.13376926024816976  0.4079830732951097  1.0000
  C   C15       1.0  0.21026847846401345  0.8846559165962347  0.44149281847403804  1.0000
  C   C16       1.0  0.789731520895788  0.11534408418739003  0.558507181450867  1.0000
  C   C17       1.0  0.39482677412417955  0.8374259459141528  0.5718269101068282  1.0000
  C   C18       1.0  0.6051732250953726  0.1625740537877857  0.4281730898178293  1.0000
  C   C19       1.0  0.4314781330717839  0.7620906975984537  0.6556361469616642  1.0000
  C   C20       1.0  0.5685218674827434  0.23790930317971037  0.34436385296000166  1.0000
  C   C21       1.0  0.6058088695406034  0.814278776901177  0.7015636780640929  1.0000
  C   C22       1.0  0.3941911308736745  0.18572122279530084  0.2984363218573253  1.0000
  C   C23       1.0  0.6464753799951806  0.7490027510125372  0.7900861176028944  1.0000
  C   C24       1.0  0.3535246192243717  0.2509972486894011  0.20991388232176308  1.0000
  C   C25       1.0  0.8123371219265169  0.8135888040995546  0.8438474358164172  1.0000
  C   C26       1.0  0.18766287729303507  0.1864111956023838  0.15615256410824013  1.0000
  C   C27       1.0  0.8500327627295197  0.7495326772320542  0.9331416519224061  1.0000
  C   C28       1.0  0.14996723649003235  0.2504673224698842  0.0668583480022513  1.0000
  C   C29       1.0  0.38733630891536835  0.8962583296278245  0.0235082850263808  1.0000
  C   C30       1.0  0.6126636904444331  0.10374167115580035  0.9764917148985242  1.0000
  C   C31       1.0  0.537057684295491  0.9313389913355156  0.07924684025428186  1.0000
  C   C32       1.0  0.46294231492406124  0.06866100836642282  0.9207531596703756  1.0000
  C   C33       1.0  0.6491011940564435  0.03645711069511698  0.05413213966609903  1.0000
  C   C34       1.0  0.35089880665032297  0.9635428902775031  0.9458678609632579  1.0000
  N   N1        1.0  0.22090049899627115  0.8059614594544422  0.5243837828146806  1.0000
  N   N2        1.0  0.7790995014180069  0.19403854024203562  0.4756162171067377  1.0000
  O   O1        1.0  0.9819987632593906  0.4091942780246901  0.3174281753256793  1.0000
  O   O2        1.0  0.018001236100411044  0.5908057227589346  0.6825718245992256  1.0000
  O   O3        1.0  0.18839844202520292  0.5925506085137129  0.3236930754924208  1.0000
  O   O4        1.0  0.8116015571943492  0.40744939118822554  0.6763069244322365  1.0000
  F   F1        1.0  0.27293978998863505  0.7950600574027663  0.04450308307977011  1.0000
  F   F2        1.0  0.7270602104256428  0.20493994229371154  0.9554969168416482  1.0000
  F   F3        1.0  0.7974782720171325  0.07498786915719761  0.10550857055089119  1.0000
  F   F4        1.0  0.20252172853739478  0.9250121316209665  0.8944914293707746  1.0000
  I   I1        1.0  0.5952692507018268  0.8310867111292684  0.1989129911713136  1.0000
  I   I2        1.0  0.4047307486579747  0.16891328965435629  0.8010870087535914  1.0000
  I   I3        1.0  0.7100806306222617  0.7097103883868093  0.39844687398988354  1.0000
  I   I4        1.0  0.28991936874952967  0.29028961150958504  0.601553126642465  1.0000
