data_image0
_chemical_formula_structural       H30C48N4S4I8
_chemical_formula_sum              "H30 C48 N4 S4 I8"
_cell_length_a       7.892394729251902
_cell_length_b       9.716916997828218
_cell_length_c       17.890492436316272
_cell_angle_alpha    74.98308637530714
_cell_angle_beta     78.08531966143988
_cell_angle_gamma    78.36177968299567

_space_group_name_H-M_alt    "P 1"
_space_group_IT_number       1

loop_
  _space_group_symop_operation_xyz
  'x, y, z'

loop_
  _atom_site_type_symbol
  _atom_site_label
  _atom_site_symmetry_multiplicity
  _atom_site_fract_x
  _atom_site_fract_y
  _atom_site_fract_z
  _atom_site_occupancy
  H   H1        1.0  0.8985500274047326  0.6677482812866478  0.5452719969121146  1.0000
  H   H2        1.0  0.1014499717978742  0.3322517184281835  0.45472800356913945  1.0000
  H   H3        1.0  0.8414793473690836  0.7343654393726492  0.6731654949267112  1.0000
  H   H4        1.0  0.15852065183352335  0.2656345603421819  0.3268345055545428  1.0000
  H   H5        1.0  0.5231599631272499  0.39340380472495967  0.7712577983285326  1.0000
  H   H6        1.0  0.4768400363009266  0.606596195227642  0.22874220156619  1.0000
  H   H7        1.0  0.41701293590380656  0.12682301083179992  0.5568671379672431  1.0000
  H   H8        1.0  0.5829870647909596  0.8731769891135202  0.4431328619321896  1.0000
  H   H9        1.0  0.48930717364022513  0.1172468707727511  0.41710375415525613  1.0000
  H   H10       1.0  0.5106928268014801  0.8827531302248934  0.58289624574028  1.0000
  H   H11       1.0  0.691882684764721  0.2734871864855541  0.32308148655884983  1.0000
  H   H12       1.0  0.3081173146634553  0.7265128134670474  0.6769185133358727  1.0000
  H   H13       1.0  0.8165600196844299  0.44558552318869277  0.37118497545109774  1.0000
  H   H14       1.0  0.18343997974374654  0.5544144767639088  0.6288150244436249  1.0000
  H   H15       1.0  0.9378524004263934  0.7018655045326447  0.7955516214577637  1.0000
  H   H16       1.0  0.062147599001783016  0.29813449541995674  0.2044483784369589  1.0000
  H   H17       1.0  0.9641307334355876  0.9455603214594278  0.8106327346253226  1.0000
  H   H18       1.0  0.03586926703360908  0.054439678248121605  0.18936726586064154  1.0000
  H   H19       1.0  0.6977363424792776  0.12240524431663716  0.8351456208542899  1.0000
  H   H20       1.0  0.30226365821548873  0.8775947556286826  0.16485437904514277  1.0000
  H   H21       1.0  0.40070471924567763  0.05652365049149123  0.8491006460958502  1.0000
  H   H22       1.0  0.5992952814490884  0.9434763494538286  0.15089935380358252  1.0000
  H   H23       1.0  0.10937774532076804  0.5995792528784047  0.9699993437894328  1.0000
  H   H24       1.0  0.8906222551484286  0.40042074682914486  0.0300006566965313  1.0000
  H   H25       1.0  0.19582793741438215  0.3411144474621608  0.034229410972908894  1.0000
  H   H26       1.0  0.804172063280384  0.6588855524831592  0.9657705889265239  1.0000
  H   H27       1.0  0.49344770408138183  0.21180932719764428  0.9946495458772756  1.0000
  H   H28       1.0  0.5065522951212252  0.788190672517187  0.005350454603978356  1.0000
  H   H29       1.0  0.7036622127542036  0.3391369542155232  0.8877847231002997  1.0000
  H   H30       1.0  0.2963377879405626  0.6608630457297968  0.112215276799133  1.0000
  C   C1        1.0  0.7444506167811126  0.49469972048035576  0.5831962386677658  1.0000
  C   C2        1.0  0.2555493826470637  0.5053002794722459  0.4168037612269568  1.0000
  C   C3        1.0  0.81968128206324  0.6078018233363326  0.595944523996122  1.0000
  C   C4        1.0  0.18031871736493643  0.39219817661626893  0.40405547589860064  1.0000
  C   C5        1.0  0.7876044008743078  0.6440889613669684  0.6668067659669012  1.0000
  C   C6        1.0  0.21239559982045836  0.35591103857835166  0.3331932339325315  1.0000
  C   C7        1.0  0.6785013682105167  0.5667490565626412  0.7323361589886858  1.0000
  C   C8        1.0  0.3214986312176598  0.43325094338996045  0.26766384090603673  1.0000
  C   C9        1.0  0.6102579306942318  0.4501671756299344  0.7229310998152455  1.0000
  C   C10       1.0  0.38974206873394474  0.5498328243226672  0.27706890007947704  1.0000
  C   C11       1.0  0.6386058182657152  0.4157155860883868  0.6505574857253467  1.0000
  C   C12       1.0  0.36139418116246125  0.5842844138642147  0.34944251416937594  1.0000
  C   C13       1.0  0.5835540255740546  0.28577391552732057  0.544047557947078  1.0000
  C   C14       1.0  0.41644597489514196  0.714226084180229  0.4559524425388861  1.0000
  C   C15       1.0  0.5088607114343198  0.19286014346180846  0.5165548866105673  1.0000
  C   C16       1.0  0.49113928799385664  0.8071398564907931  0.4834451132841553  1.0000
  C   C17       1.0  0.5487397530396153  0.1891032145330791  0.43788830965977765  1.0000
  C   C18       1.0  0.4512602461355004  0.810896786471847  0.5621116902310483  1.0000
  C   C19       1.0  0.6617413979049299  0.27831067727300396  0.38470668974774425  1.0000
  C   C20       1.0  0.33825860152324644  0.7216893226795976  0.6152933101469784  1.0000
  C   C21       1.0  0.7321443070840563  0.37248203954820225  0.4108110708638858  1.0000
  C   C22       1.0  0.2678556933576489  0.6275179614494422  0.5891889290316503  1.0000
  C   C23       1.0  0.6962677100852068  0.3790783199054809  0.49094114283269225  1.0000
  C   C24       1.0  0.3037322903839896  0.6209216798020687  0.509058857653272  1.0000
  C   C25       1.0  0.6561378772860444  0.746894554728027  0.8103820951624084  1.0000
  C   C26       1.0  0.34386212214213197  0.2531054452245746  0.18961790473231405  1.0000
  C   C27       1.0  0.8218469824983915  0.7818240383657291  0.8055812811664431  1.0000
  C   C28       1.0  0.17815301692978497  0.2181759615868724  0.19441871872827945  1.0000
  C   C29       1.0  0.8356463364056633  0.9172544323629072  0.8143514928705599  1.0000
  C   C30       1.0  0.16435366302251309  0.08274556758969442  0.18564850702416272  1.0000
  C   C31       1.0  0.6849494130041847  0.017000656851299752  0.8281939604526456  1.0000
  C   C32       1.0  0.31505058617093107  0.9829993441536263  0.17180603943818049  1.0000
  C   C33       1.0  0.5190991280362742  0.9813406135778205  0.8354204911454348  1.0000
  C   C34       1.0  0.48090087265849174  0.018659386367499357  0.164579508753998  1.0000
  C   C35       1.0  0.5039940277941586  0.8448244813958499  0.8274334338126438  1.0000
  C   C36       1.0  0.4960059729006076  0.15517551854947031  0.172566566086789  1.0000
  C   C37       1.0  0.35254921328556843  0.6101567069271179  0.8891774594132451  1.0000
  C   C38       1.0  0.6474507859170385  0.38984329278771324  0.11082254106800887  1.0000
  C   C39       1.0  0.23592315977847697  0.5396861430241982  0.950236528103982  1.0000
  C   C40       1.0  0.7640768396496996  0.4603138569284036  0.049763471790740484  1.0000
  C   C41       1.0  0.28600234893388216  0.39613209140722455  0.9866582057136507  1.0000
  C   C42       1.0  0.7139976502412336  0.6038679095977015  0.013341794177175216  1.0000
  C   C43       1.0  0.45347019421990253  0.322986788471933  0.9645463096011476  1.0000
  C   C44       1.0  0.5465298052082741  0.6770132114806684  0.035453690293574966  1.0000
  C   C45       1.0  0.5709815316784012  0.39301416869610706  0.9046012419620024  1.0000
  C   C46       1.0  0.4290184690163649  0.6069858312492128  0.0953987579374303  1.0000
  C   C47       1.0  0.5184658280766247  0.5351054619193423  0.8658433829497746  1.0000
  C   C48       1.0  0.48153417261814146  0.4648945380259776  0.13415661694965816  1.0000
  N   N1        1.0  0.771000526860513  0.4759528133950388  0.5107833313696777  1.0000
  N   N2        1.0  0.2289994736086837  0.5240471863125108  0.48921666911628653  1.0000
  N   N3        1.0  0.6327875354230612  0.6094717643041526  0.8019555994462513  1.0000
  N   N4        1.0  0.3672124640051152  0.39052823564844885  0.19804440044847138  1.0000
  S   S1        1.0  0.5353953756647317  0.28196595582773853  0.6425406697993994  1.0000
  S   S2        1.0  0.46460462376344475  0.718034044124863  0.35745933009532327  1.0000
  S   S3        1.0  0.29569723976421647  0.7925373158931038  0.842865566802499  1.0000
  S   S4        1.0  0.7043027596639599  0.20746268405949794  0.1571344330922236  1.0000
  I   I1        1.0  0.014519710032455491  0.056043170989241414  0.5842164392503825  1.0000
  I   I2        1.0  0.9854802889170906  0.9439568297779143  0.41578356122697496  1.0000
  I   I3        1.0  0.07420158431505379  0.22002615528124905  0.6869671445405064  1.0000
  I   I4        1.0  0.9257984151131228  0.7799738446713523  0.31303285535421616  1.0000
  I   I5        1.0  0.1279738147451374  0.3934349559665261  0.7945809632657719  1.0000
  I   I6        1.0  0.8720261857240592  0.6065650437410235  0.20541903722019225  1.0000
  I   I7        1.0  0.03640615710260838  0.12449633840805069  0.9429020553522127  1.0000
  I   I8        1.0  0.963593842325568  0.8755036615445507  0.05709794454251  1.0000
