data_image0
_chemical_formula_structural       H68C64N4O4S4I18
_chemical_formula_sum              "H68 C64 N4 O4 S4 I18"
_cell_length_a       12.816844450237427
_cell_length_b       13.285687209656372
_cell_length_c       14.679743501657043
_cell_angle_alpha    97.1904535703232
_cell_angle_beta     107.35158100375685
_cell_angle_gamma    110.31563480182488

_space_group_name_H-M_alt    "P 1"
_space_group_IT_number       1

loop_
  _space_group_symop_operation_xyz
  'x, y, z'

loop_
  _atom_site_type_symbol
  _atom_site_label
  _atom_site_symmetry_multiplicity
  _atom_site_fract_x
  _atom_site_fract_y
  _atom_site_fract_z
  _atom_site_occupancy
  H   H1        1.0  0.7347669557748489  0.9010163314611812  0.6153925930114753  1.0000
  H   H2        1.0  0.2652330447504652  0.09898366856764179  0.38460740677632055  1.0000
  H   H3        1.0  0.6136872354070809  0.87012114940614  0.5019520200996498  1.0000
  H   H4        1.0  0.386312764666696  0.1298788508344  0.49804798042657955  1.0000
  H   H5        1.0  0.4858771647142548  0.7623105945104167  0.5730886699400074  1.0000
  H   H6        1.0  0.5141228353595223  0.23768940573012345  0.426911330586222  1.0000
  H   H7        1.0  0.6097008781487026  0.774247242271965  0.6748988838951963  1.0000
  H   H8        1.0  0.39029912159607  0.2257527577557418  0.32510111589284124  1.0000
  H   H9        1.0  0.4836520087066356  0.6025685607103054  0.4765855936005355  1.0000
  H   H10       1.0  0.5163479918186783  0.39743143931851765  0.5234144061872602  1.0000
  H   H11       1.0  0.5460361563169261  0.5832490397694172  0.5949709417987858  1.0000
  H   H12       1.0  0.4539638434278463  0.4167509602582895  0.4050290579892515  1.0000
  H   H13       1.0  0.7494231850015527  0.6718628714711373  0.5988863126519505  1.0000
  H   H14       1.0  0.2505768150722243  0.3281371287694029  0.4011136878742789  1.0000
  H   H15       1.0  0.670905638557767  0.6007522883301637  0.4712051228474025  1.0000
  H   H16       1.0  0.32909436196754704  0.39924771169865936  0.5287948769403933  1.0000
  H   H17       1.0  0.6480159664422168  0.5821925075446388  0.18339028536718427  1.0000
  H   H18       1.0  0.3519840336315601  0.4178074926959014  0.8166097151590452  1.0000
  H   H19       1.0  0.7764639052908265  0.49023453906091224  0.15123480659247915  1.0000
  H   H20       1.0  0.22353609523448753  0.5097654609679109  0.8487651931953166  1.0000
  H   H21       1.0  0.9410788783132795  0.5865867775452107  0.09429884717403433  1.0000
  H   H22       1.0  0.0589211214314929  0.413413222482496  0.9057011526140032  1.0000
  H   H23       1.0  0.9769343880184334  0.7755219119888332  0.06979914344793986  1.0000
  H   H24       1.0  0.023065612055343725  0.22447808825170693  0.9302008570782896  1.0000
  H   H25       1.0  0.8149802983351422  0.10184973402654651  0.07054598826221359  1.0000
  H   H26       1.0  0.18501970140963026  0.89815026600116  0.9294540115258237  1.0000
  H   H27       1.0  0.6544385349060451  0.1552070636250643  0.09164164348556392  1.0000
  H   H28       1.0  0.3455614648387274  0.8447929364026424  0.9083583563024735  1.0000
  H   H29       1.0  0.5032181192620205  0.03295207571645265  0.14909808585028705  1.0000
  H   H30       1.0  0.49678188019534236  0.967047923508827  0.8509019139384076  1.0000
  H   H31       1.0  0.5122734153506033  0.8572959028466527  0.18463225627808744  1.0000
  H   H32       1.0  0.4877265847231736  0.14270409739388726  0.8153677442481421  1.0000
  H   H33       1.0  0.5961132869453609  0.7316723676576017  0.1825832668349063  1.0000
  H   H34       1.0  0.40388671279941146  0.268327632370105  0.8174167329531311  1.0000
  H   H35       1.0  0.8285668991272125  0.6928099040980754  0.4322134434910576  1.0000
  H   H36       1.0  0.17143310094656444  0.3071900961424647  0.5677865570351719  1.0000
  H   H37       1.0  0.9623797313503638  0.6049768954756272  0.40665273750605724  1.0000
  H   H38       1.0  0.03762026888754075  0.3950231037507689  0.5933472622823956  1.0000
  H   H39       1.0  0.12263174506506178  0.6994573321537919  0.34438608653619013  1.0000
  H   H40       1.0  0.8773682547213058  0.3005426672843211  0.6556139139906966  1.0000
  H   H41       1.0  0.14660135107103647  0.8813369240487678  0.30706554562387467  1.0000
  H   H42       1.0  0.8533986494542777  0.11866307598005547  0.6929344541639212  1.0000
  H   H43       1.0  0.9869509585515964  0.20793655694841692  0.3102006811221733  1.0000
  H   H44       1.0  0.013049041522180563  0.7920634432921232  0.6897993194040561  1.0000
  H   H45       1.0  0.8447421756866005  0.2745445018300888  0.3526929793430596  1.0000
  H   H46       1.0  0.15525782405817196  0.7254554981976179  0.6473070204449779  1.0000
  H   H47       1.0  0.6971314779327571  0.15545153587446042  0.41553094712906735  1.0000
  H   H48       1.0  0.30286852181201546  0.8445484641532462  0.5844690526589701  1.0000
  H   H49       1.0  0.6923894257466742  0.9723157093307855  0.4351794284578893  1.0000
  H   H50       1.0  0.3076105743271027  0.027684290909754435  0.5648205720683401  1.0000
  H   H51       1.0  0.776327614139849  0.8401027538286074  0.43037528203682457  1.0000
  H   H52       1.0  0.22367238560492358  0.15989724619909923  0.5696247177512129  1.0000
  H   H53       1.0  0.428732508582995  0.6857215838254261  0.31581373296746323  1.0000
  H   H54       1.0  0.571267491490782  0.3142784164151139  0.6841862675587661  1.0000
  H   H55       1.0  0.5457895038166427  0.6376894646743507  0.33311235082164864  1.0000
  H   H56       1.0  0.45421049564072014  0.362310534550929  0.6668876489670461  1.0000
  H   H57       1.0  0.3128261708586842  0.490933088963457  0.29765005697855346  1.0000
  H   H58       1.0  0.6871738292150928  0.5090669112770831  0.702349943547676  1.0000
  H   H59       1.0  0.4046060898375362  0.44820309220504784  0.24536902221051393  1.0000
  H   H60       1.0  0.5953939099072363  0.5517969078226589  0.7546309775775235  1.0000
  H   H61       1.0  0.23388345767099136  0.4171378771110284  0.09905580017605767  1.0000
  H   H62       1.0  0.7661165431833272  0.582862123130628  0.9009442003499301  1.0000
  H   H63       1.0  0.2223066113857443  0.5404503633398667  0.14823189274497658  1.0000
  H   H64       1.0  0.7776933883590282  0.45954963668783994  0.8517681070430608  1.0000
  H   H65       1.0  0.4142074822012477  0.5203932882892742  0.07199142728470982  1.0000
  H   H66       1.0  0.5857925180366569  0.4796067109371218  0.9280085725037432  1.0000
  H   H67       1.0  0.342391776052963  0.6141528560048655  0.05304465618592309  1.0000
  H   H68       1.0  0.657608224472351  0.38584714402395764  0.9469553436018727  1.0000
  C   C1        1.0  0.6586395622404597  0.8337399087315807  0.5555193035986804  1.0000
  C   C2        1.0  0.34136043832644913  0.16626009070764872  0.4444806969279645  1.0000
  C   C3        1.0  0.5723470988006019  0.7555772801430077  0.5941051429279247  1.0000
  C   C4        1.0  0.4276529017247122  0.2444227198858155  0.40589485685987103  1.0000
  C   C5        1.0  0.5595258801464212  0.6398355519067552  0.5473598110167862  1.0000
  C   C6        1.0  0.4404741193109416  0.3601644473185244  0.4526401887719084  1.0000
  C   C7        1.0  0.676506816587223  0.6632193620105444  0.5311444434905942  1.0000
  C   C8        1.0  0.32349318315754955  0.33678063801716224  0.46885555629744324  1.0000
  C   C9        1.0  0.740782977794447  0.7323052654387892  0.14710169128415243  1.0000
  C   C10       1.0  0.2592170219503255  0.26769473458891746  0.8528983085038849  1.0000
  C   C11       1.0  0.7206740238449156  0.6243297250137307  0.15928355461194077  1.0000
  C   C12       1.0  0.2793259758998568  0.375670275013976  0.8407164451760967  1.0000
  C   C13       1.0  0.7925082771581695  0.5734448735783281  0.14101794881445753  1.0000
  C   C14       1.0  0.20749172369614902  0.4265551266633284  0.8589820517115302  1.0000
  C   C15       1.0  0.885415773099385  0.6277449308228091  0.10898029411822385  1.0000
  C   C16       1.0  0.11458422668698244  0.37225506861530383  0.8910197064086628  1.0000
  C   C17       1.0  0.9057480609398443  0.7330247810768798  0.09515373444664461  1.0000
  C   C18       1.0  0.09425193958546982  0.26697521895194326  0.9048462653411512  1.0000
  C   C19       1.0  0.8348384023050488  0.7867591171727011  0.11475810622914163  1.0000
  C   C20       1.0  0.16516159776872819  0.21324088306783895  0.8852418942970878  1.0000
  C   C21       1.0  0.7543296936083524  0.9498480129050961  0.11538137471126718  1.0000
  C   C22       1.0  0.24567030646542454  0.05015198733544384  0.8846186258149622  1.0000
  C   C23       1.0  0.7480749180790851  0.04867687372921086  0.09494852045980218  1.0000
  C   C24       1.0  0.25192508166568744  0.9513231262984958  0.9050514793282353  1.0000
  C   C25       1.0  0.6587362696891089  0.0782905868938308  0.10719141006271989  1.0000
  C   C26       1.0  0.34126373083620515  0.9217094131349924  0.8928085897250759  1.0000
  C   C27       1.0  0.5736866627952737  0.00937264500643264  0.1400196084515735  1.0000
  C   C28       1.0  0.4263133369494988  0.9906273550212742  0.859980391336464  1.0000
  C   C29       1.0  0.5782681034857676  0.911829815129362  0.16021261046297705  1.0000
  C   C30       1.0  0.42173189625900476  0.08817018489834459  0.8397873893250604  1.0000
  C   C31       1.0  0.6683067039089031  0.8797639744443676  0.1479028548450238  1.0000
  C   C32       1.0  0.33169329583586943  0.12023602558333915  0.8520971449430137  1.0000
  C   C33       1.0  0.9096525713799563  0.8365894546257332  0.38305236132559634  1.0000
  C   C34       1.0  0.09034742836481618  0.1634105454019733  0.6169476384624412  1.0000
  C   C35       1.0  0.8979431335186884  0.7335450425979576  0.40451675167505896  1.0000
  C   C36       1.0  0.10205686655508865  0.2664549576425824  0.5954832488511705  1.0000
  C   C37       1.0  0.9730103230914106  0.6848627820885718  0.390042198152522  1.0000
  C   C38       1.0  0.02698967665336186  0.3151372179391349  0.6099578016355155  1.0000
  C   C39       1.0  0.06317366060115565  0.7378825451775656  0.3548817471068488  1.0000
  C   C40       1.0  0.9368263399241585  0.26211745485125754  0.645118252680947  1.0000
  C   C41       1.0  0.07710278634602342  0.8394556604503075  0.3343327676777997  1.0000
  C   C42       1.0  0.9228972133987492  0.1605443395773994  0.6656672321102378  1.0000
  C   C43       1.0  0.00044959929848245356  0.889397817488928  0.3469502010301449  1.0000
  C   C44       1.0  0.99955040044629  0.11060218253877867  0.6530497987578926  1.0000
  C   C45       1.0  0.920761294351967  0.05308876106692766  0.3492856585543673  1.0000
  C   C46       1.0  0.07923870510539605  0.946911238158352  0.6507143412343275  1.0000
  C   C47       1.0  0.9225593751810199  0.15707489895194907  0.3382011708062889  1.0000
  C   C48       1.0  0.077440624892757  0.8429251012885911  0.6617988297199405  1.0000
  C   C49       1.0  0.8426959687275069  0.1937552255099878  0.36150617578274935  1.0000
  C   C50       1.0  0.1573040317978072  0.8062447745188352  0.6384938240050465  1.0000
  C   C51       1.0  0.7599893005815546  0.12671926871633463  0.3969083946157338  1.0000
  C   C52       1.0  0.24001069965634989  0.8732807305100614  0.6030916051727192  1.0000
  C   C53       1.0  0.757485340627469  0.024300197533847438  0.40867174639838144  1.0000
  C   C54       1.0  0.24251466022684956  0.975699802707809  0.5913282541276063  1.0000
  C   C55       1.0  0.837596970504149  0.9849431235512457  0.38533378042918215  1.0000
  C   C56       1.0  0.1624030292406235  0.01505687647646117  0.6146662193588552  1.0000
  C   C57       1.0  0.45796385509608073  0.626782233440514  0.28213456942692156  1.0000
  C   C58       1.0  0.5420361449776961  0.3732177668000261  0.7178654310993078  1.0000
  C   C59       1.0  0.3636253437128787  0.5082213181817775  0.2488835922902161  1.0000
  C   C60       1.0  0.6363746560318938  0.49177868184592916  0.7511164074978213  1.0000
  C   C61       1.0  0.28533554413199513  0.502511900488351  0.14486413116536354  1.0000
  C   C62       1.0  0.7146644559417817  0.497488099752189  0.8551358693608658  1.0000
  C   C63       1.0  0.3763748018075491  0.5707296687147806  0.1057532975666199  1.0000
  C   C64       1.0  0.6236251979372233  0.42927033131292613  0.8942467022214176  1.0000
  N   N1        1.0  0.6688713931485926  0.7812879973124258  0.16596441077580737  1.0000
  N   N2        1.0  0.3311286073767215  0.21871200271639726  0.8340355890119884  1.0000
  N   N3        1.0  0.8334852493010785  0.882847847697677  0.3974374969440431  1.0000
  N   N4        1.0  0.1665147504436939  0.11715215233002957  0.6025625028439942  1.0000
  O   O1        1.0  0.7034515264769686  0.7678781803438197  0.503696247024004  1.0000
  O   O2        1.0  0.29654847326780376  0.23212181968388695  0.49630375276403343  1.0000
  O   O3        1.0  0.4723010703683079  0.6547976637844755  0.19258278434067724  1.0000
  O   O4        1.0  0.5276989293764646  0.34520233624323116  0.8074172154473602  1.0000
  S   S1        1.0  0.8711747459266092  0.9208718404417633  0.10274939392419236  1.0000
  S   S2        1.0  0.1288252538181634  0.07912815958594355  0.8972506058638451  1.0000
  S   S3        1.0  0.022036174523982745  0.014156465171317538  0.31543955568585536  1.0000
  S   S4        1.0  0.9779638260013315  0.9858435348575056  0.6845604441019404  1.0000
  I   I1        1.0  0.5051202508124272  0.6937656163654637  0.9034043118348416  1.0000
  I   I2        1.0  0.4948797489323453  0.306234383662243  0.09659568795319594  1.0000
  I   I3        1.0  0.3459417912812844  0.6118271507890358  0.6999257823847458  1.0000
  I   I4        1.0  0.6540582084634881  0.3881728492386709  0.30007421740329165  1.0000
  I   I5        1.0  0.19557684815392837  0.5600373496951875  0.4867711873542721  1.0000
  I   I6        1.0  0.8044231515908441  0.4399626503325193  0.5132288124337654  1.0000
  I   I7        1.0  0.03451959202505994  0.43155523103798415  0.26230837767966286  1.0000
  I   I8        1.0  0.9654804088292587  0.5684447692036724  0.737691622846325  1.0000
  I   I9        1.0  0.8974737230038754  0.3359488142204643  0.056518417734925074  1.0000
  I   I10       1.0  0.10252627674089695  0.6640511858072424  0.9434815820531124  1.0000
  I   I11       1.0  0.7382450806399417  0.1917450935302033  0.8298161546534045  1.0000
  I   I12       1.0  0.2617549194338354  0.8082549067103367  0.17018384587282487  1.0000
  I   I13       1.0  0.8011049681038613  0.9897011000781137  0.8470605137968897  1.0000
  I   I14       1.0  0.19889503196991562  0.010298900162426258  0.1529394867293396  1.0000
  I   I15       1.0  0.8712327177224608  0.8099343880440628  0.8461754392299985  1.0000
  I   I16       1.0  0.12876728173490218  0.19006561118121673  0.15382456055869625  1.0000
  I   I17       1.0  0.5725493822153233  0.06451830210008677  0.5999713341835986  1.0000
  I   I18       1.0  0.42745061752944935  0.93548169792762  0.40002866560443884  1.0000
