data_image0
_chemical_formula_structural       H84C60N8O22S2
_chemical_formula_sum              "H84 C60 N8 O22 S2"
_cell_length_a       10.9589034623412
_cell_length_b       11.8021318252103
_cell_length_c       12.812510755603647
_cell_angle_alpha    88.58855950115024
_cell_angle_beta     79.0434058706551
_cell_angle_gamma    84.32407334712309

_space_group_name_H-M_alt    "P 1"
_space_group_IT_number       1

loop_
  _space_group_symop_operation_xyz
  'x, y, z'

loop_
  _atom_site_type_symbol
  _atom_site_label
  _atom_site_symmetry_multiplicity
  _atom_site_fract_x
  _atom_site_fract_y
  _atom_site_fract_z
  _atom_site_occupancy
  H   H1        1.0  0.5556228417186904  0.7585805791877683  0.4034286377759364  1.0000
  H   H2        1.0  0.44437715773550773  0.24141942113303932  0.5965713622893595  1.0000
  H   H3        1.0  0.8281607380690322  0.4848462096232653  0.4543015222845819  1.0000
  H   H4        1.0  0.17183926147572817  0.515153789846049  0.5456984777861941  1.0000
  H   H5        1.0  0.6123741905183004  0.49032046030470344  0.9299124294344507  1.0000
  H   H6        1.0  0.3876258099558121  0.5096795391654553  0.07008757048417195  1.0000
  H   H7        1.0  0.6869452313247859  0.28970612152952807  0.04358429919301288  1.0000
  H   H8        1.0  0.3130547681294123  0.7102938787912795  0.9564157008722831  1.0000
  H   H9        1.0  0.7882965110644053  0.31795228346414406  0.8682645338304482  1.0000
  H   H10       1.0  0.2117034894097074  0.6820477160060145  0.13173546608817457  1.0000
  H   H11       1.0  0.7537560275389632  0.20362147253109977  0.17757239321386228  1.0000
  H   H12       1.0  0.24624397284458724  0.7963785277905522  0.8224276066992804  1.0000
  H   H13       1.0  0.9262927618701243  0.3818710820029106  0.039437361479745366  1.0000
  H   H14       1.0  0.07370723851342607  0.6181289183187414  0.9605626384333974  1.0000
  H   H15       1.0  0.7890804769612314  0.39488652574194044  0.14085357049329236  1.0000
  H   H16       1.0  0.2109195224929667  0.6051134745788672  0.8591464295720036  1.0000
  H   H17       1.0  0.6963738900025336  0.6586957267961693  0.04623142996399137  1.0000
  H   H18       1.0  0.30362610945166446  0.3413042735246383  0.9537685701013046  1.0000
  H   H19       1.0  0.8178105928572403  0.5991858544893666  0.11400220931688144  1.0000
  H   H20       1.0  0.1821894076168722  0.4008141449807921  0.8859977906017413  1.0000
  H   H21       1.0  0.9297909698972525  0.4693329544363873  0.8563393435031734  1.0000
  H   H22       1.0  0.07020902964750796  0.5306670450329268  0.1436606565676026  1.0000
  H   H23       1.0  0.7903071914871594  0.550285149687661  0.8309014740421294  1.0000
  H   H24       1.0  0.209692808986953  0.44971484978249765  0.16909852587649332  1.0000
  H   H25       1.0  0.011626030971333362  0.2731261786432925  0.8993987276733311  1.0000
  H   H26       1.0  0.9883739684828647  0.7268738216775154  0.10060127239196498  1.0000
  H   H27       1.0  0.9776684724578834  0.20886983865549325  0.7876695807130156  1.0000
  H   H28       1.0  0.0223315279256669  0.7911301616661588  0.21233041920012719  1.0000
  H   H29       1.0  0.986877219658918  0.12633499289167047  0.9043189032015149  1.0000
  H   H30       1.0  0.013122779795280268  0.8736650074291371  0.09568109686378112  1.0000
  H   H31       1.0  0.5575315882420447  0.23926676666748922  0.9809066856111898  1.0000
  H   H32       1.0  0.4424684121415056  0.7607332336541628  0.019093314301952855  1.0000
  H   H33       1.0  0.5360353255190542  0.13927019685320505  0.8877925187131089  1.0000
  H   H34       1.0  0.4639646740257061  0.8607298026161091  0.1122074813576671  1.0000
  H   H35       1.0  0.5908777006033893  0.2715551023396113  0.8425331585980794  1.0000
  H   H36       1.0  0.409122299780161  0.7284448979820409  0.15746684131506333  1.0000
  H   H37       1.0  0.7858186124626052  0.17470800412234344  0.7218739740652864  1.0000
  H   H38       1.0  0.21418138801150743  0.8252919953478152  0.2781260258533364  1.0000
  H   H39       1.0  0.710855215981499  0.04987128382027083  0.756700965294093  1.0000
  H   H40       1.0  0.28914478356326123  0.9501287156490434  0.243299034776683  1.0000
  H   H41       1.0  0.8681499086913267  0.052421822335015585  0.769946762605404  1.0000
  H   H42       1.0  0.13185009076287132  0.9475781779857921  0.23005323745989217  1.0000
  H   H43       1.0  0.7559146877708964  0.89956086956814  0.8817961696760939  1.0000
  H   H44       1.0  0.2440853126126537  0.10043913075351232  0.11820383023704893  1.0000
  H   H45       1.0  0.6005148883334124  0.9593366321907519  0.9192736377927578  1.0000
  H   H46       1.0  0.39948511205013804  0.04066336813090019  0.08072636212038482  1.0000
  H   H47       1.0  0.6757067512451882  0.8844919255580985  0.014296624413219541  1.0000
  H   H48       1.0  0.3242932491383621  0.11550807476355354  0.9857033754999232  1.0000
  H   H49       1.0  0.8320301002563869  0.9902121270362867  0.20535342199226742  1.0000
  H   H50       1.0  0.16796990021772568  0.009787872433872002  0.7946465779263554  1.0000
  H   H51       1.0  0.7798404040130339  0.8936310665918075  0.12650939082611967  1.0000
  H   H52       1.0  0.22015959637051644  0.10636893372984459  0.8734906090870233  1.0000
  H   H53       1.0  0.558323797505263  0.9783712108173147  0.18619468599369748  1.0000
  H   H54       1.0  0.4416762028782874  0.021628789504337383  0.8138053139194452  1.0000
  H   H55       1.0  0.6100781018063497  0.08155839996918073  0.2611416799875546  1.0000
  H   H56       1.0  0.38992189764784846  0.9184416003516268  0.7388583200777413  1.0000
  H   H57       1.0  0.6269821927509128  0.9357560368216333  0.298127042032809  1.0000
  H   H58       1.0  0.37301780670443435  0.06424396350013846  0.7018729588127642  1.0000
  H   H59       1.0  0.9921230758825137  0.07711509813512607  0.09160037971586305  1.0000
  H   H60       1.0  0.007876924501036536  0.922884902186526  0.9083996201972796  1.0000
  H   H61       1.0  0.00604794394521674  0.2214166866701169  0.06431183700242238  1.0000
  H   H62       1.0  0.9939520564383337  0.7785833136515351  0.9356881629107204  1.0000
  H   H63       1.0  0.06067930281206014  0.17202481961335991  0.23984483275002766  1.0000
  H   H64       1.0  0.9393206975714903  0.8279751807082922  0.760155167163115  1.0000
  H   H65       1.0  0.9089951777856646  0.12943334469294593  0.2876599679238204  1.0000
  H   H66       1.0  0.09100482259788564  0.8705666556287062  0.7123400319893223  1.0000
  H   H67       1.0  0.9278882438476865  0.2731445371757141  0.25331894729489324  1.0000
  H   H68       1.0  0.07211175662642604  0.7268554622944445  0.7466810526237296  1.0000
  H   H69       1.0  0.00041200114251445006  0.6267210740499701  0.4721895199250251  1.0000
  H   H70       1.0  0.9995879992410359  0.37327892627168197  0.5278104799881176  1.0000
  H   H71       1.0  0.9702700445912318  0.6080063122438234  0.6129634798629502  1.0000
  H   H72       1.0  0.02972995486296645  0.39199368807698426  0.38703652020234575  1.0000
  H   H73       1.0  0.07404653539536558  0.7077317873200218  0.551981742271805  1.0000
  H   H74       1.0  0.925953465078747  0.29226821215013676  0.4480182576468178  1.0000
  H   H75       1.0  0.9594501227129304  0.8527533499379542  0.4166988968415706  1.0000
  H   H76       1.0  0.04054987776118198  0.1472466495322045  0.5833011030770522  1.0000
  H   H77       1.0  0.7806772714034299  0.002397684344988403  0.43011938744053074  1.0000
  H   H78       1.0  0.2193227289801205  0.9976023159766637  0.569880612472612  1.0000
  H   H79       1.0  0.5979030149759212  0.9965866750474255  0.5771843523517062  1.0000
  H   H80       1.0  0.40209698549819134  0.003413324422733141  0.42281564756691653  1.0000
  H   H81       1.0  0.5962774896737985  0.8417894846171882  0.714255521647393  1.0000
  H   H82       1.0  0.40372250987096175  0.15821051485212623  0.285744478423383  1.0000
  H   H83       1.0  0.7749924569895912  0.6945430494511893  0.7017566796635236  1.0000
  H   H84       1.0  0.22500754246460714  0.3054569508696185  0.2982433204017723  1.0000
  C   C1        1.0  0.5528962999761143  0.578920741840508  0.6189012668965631  1.0000
  C   C2        1.0  0.4471036995686459  0.4210792576288062  0.3810987331742129  1.0000
  C   C3        1.0  0.5148918357288733  0.664305376876674  0.550667341543535  1.0000
  C   C4        1.0  0.48510816474523916  0.33569462259348465  0.4493326583750878  1.0000
  C   C5        1.0  0.5869600432312055  0.6902140749773772  0.4532070807655198  1.0000
  C   C6        1.0  0.4130399562229927  0.30978592534343047  0.5467929192997761  1.0000
  C   C7        1.0  0.6997510096988905  0.6251334122606568  0.42112227543598096  1.0000
  C   C8        1.0  0.30024899068466004  0.37486658806099543  0.5788777244771618  1.0000
  C   C9        1.0  0.7403909439429139  0.5356441756399988  0.4822008672574852  1.0000
  C   C10       1.0  0.2596090555112842  0.46435582468080894  0.5177991328078108  1.0000
  C   C11       1.0  0.6658169334988061  0.5143795761606663  0.5793931101449196  1.0000
  C   C12       1.0  0.33418306688474425  0.48562042416098583  0.42060688976822325  1.0000
  C   C13       1.0  0.8168516868313068  0.2411396815570429  0.9109799864152093  1.0000
  C   C14       1.0  0.18314831364280565  0.7588603179131158  0.08902001350341351  1.0000
  C   C15       1.0  0.7326688854582167  0.14882934575549195  0.8925837799157507  1.0000
  C   C16       1.0  0.26733111399598153  0.8511706545653157  0.1074162201495453  1.0000
  C   C17       1.0  0.7351370107756694  0.05317148496128336  0.9749173911240054  1.0000
  C   C18       1.0  0.2648629886785288  0.9468285153595243  0.02508260894129055  1.0000
  C   C19       1.0  0.7696122952895712  0.06778693684934149  0.06893159977054293  1.0000
  C   C20       1.0  0.23038770509397896  0.9322130634723106  0.9310684001425997  1.0000
  C   C21       1.0  0.813131640748977  0.17663318390202837  0.10129197476060343  1.0000
  C   C22       1.0  0.18686835870522114  0.8233668164187793  0.8987080253046925  1.0000
  C   C23       1.0  0.824193094867331  0.3843930400859946  0.05516434194976743  1.0000
  C   C24       1.0  0.17580690560678153  0.6156069593841641  0.9448356579688554  1.0000
  C   C25       1.0  0.7638769920313537  0.4821521793273143  0.9959209513130447  1.0000
  C   C26       1.0  0.2361230083521966  0.5178478209943378  0.00407904860009809  1.0000
  C   C27       1.0  0.7809320092264427  0.5988029196270881  0.04024365688012987  1.0000
  C   C28       1.0  0.21906799022775547  0.40119708069371957  0.9597563431851661  1.0000
  C   C29       1.0  0.8454855538850015  0.5234756580214287  0.8919924821639184  1.0000
  C   C30       1.0  0.15451444565975894  0.47652434144788564  0.10800751790685773  1.0000
  C   C31       1.0  0.9560597547973602  0.2100499317533985  0.874688071407906  1.0000
  C   C32       1.0  0.043940245586190266  0.7899500685682536  0.1253119285052366  1.0000
  C   C33       1.0  0.5967915076581157  0.2034579692628533  0.9018213425547581  1.0000
  C   C34       1.0  0.40320849179608237  0.7965420310579543  0.09817865751053788  1.0000
  C   C35       1.0  0.7776773824798937  0.10363369875331434  0.778799073842652  1.0000
  C   C36       1.0  0.22232261799421893  0.8963663007168442  0.2212009260759708  1.0000
  C   C37       1.0  0.6897829150756167  0.9436413082270336  0.9469643472634538  1.0000
  C   C38       1.0  0.3102170843785816  0.05635869209377403  0.053035652801842185  1.0000
  C   C39       1.0  0.76022025294225  0.9804560295500464  0.15762054491074798  1.0000
  C   C40       1.0  0.23977974753186249  0.01954396992011221  0.8423794550078747  1.0000
  C   C41       1.0  0.6314624659284721  0.9946248564340374  0.23024348085809196  1.0000
  C   C42       1.0  0.36853753361628827  0.0053751430352766945  0.769756519212684  1.0000
  C   C43       1.0  0.9506550607533513  0.1631026129548546  0.11660823597428287  1.0000
  C   C44       1.0  0.049344939630199286  0.8368973873667974  0.88339176393886  1.0000
  C   C45       1.0  0.9629114964340512  0.18520646541809654  0.23050281728814961  1.0000
  C   C46       1.0  0.03708850394949923  0.8147935349035554  0.7694971826249931  1.0000
  C   C47       1.0  0.9863652887291527  0.6711056722545607  0.5486564885211036  1.0000
  C   C48       1.0  0.013634710815607652  0.3288943272147535  0.4513435115496724  1.0000
  C   C49       1.0  0.8792794104605991  0.7624583796193171  0.5578451410477824  1.0000
  C   C50       1.0  0.12072058899474807  0.23754162070245485  0.44215485979779084  1.0000
  C   C51       1.0  0.8794921348417751  0.8503076249935257  0.48202486817330303  1.0000
  C   C52       1.0  0.12050786461242302  0.14969237532728188  0.5179751318919931  1.0000
  C   C53       1.0  0.7793916560765835  0.9343428234575653  0.4892048915873029  1.0000
  C   C54       1.0  0.22060834346817668  0.06565717601174892  0.5107951084834732  1.0000
  C   C55       1.0  0.6767261802496348  0.9317929654546389  0.5725035343759658  1.0000
  C   C56       1.0  0.3232738202244778  0.06820703401551997  0.4274964655426569  1.0000
  C   C57       1.0  0.6758923619989831  0.8455398825364797  0.6491301926619242  1.0000
  C   C58       1.0  0.324107637455215  0.1544601177843279  0.3508698074033719  1.0000
  C   C59       1.0  0.776554321912779  0.7619633222696541  0.6417354291069997  1.0000
  C   C60       1.0  0.2234456776319813  0.23803667719966012  0.35826457096377645  1.0000
  N   N1        1.0  0.3929779004115172  0.7322818852635331  0.5782738140700084  1.0000
  N   N2        1.0  0.6070220999720332  0.2677181150581189  0.4217261858431344  1.0000
  N   N3        1.0  0.7795800582320987  0.6518487158934256  0.32007494805421016  1.0000
  N   N4        1.0  0.2204199422420137  0.3481512835767331  0.6799250518644125  1.0000
  N   N5        1.0  0.7118244288663589  0.41503170538237816  0.6385736920683257  1.0000
  N   N6        1.0  0.2881755705878392  0.5849682949384294  0.3614263079969704  1.0000
  N   N7        1.0  0.7834447950758594  0.27305168347735126  0.02745850013071756  1.0000
  N   N8        1.0  0.21655520530769082  0.726948316844301  0.9725414997824251  1.0000
  O   O1        1.0  0.5864938862836441  0.5238837315131466  0.8054160438777485  1.0000
  O   O2        1.0  0.4135061131705541  0.4761162688076609  0.19458395618754767  1.0000
  O   O3        1.0  0.4308006129326165  0.6831309586681514  0.7891857415312475  1.0000
  O   O4        1.0  0.5691993874509339  0.3168690416535006  0.21081425838189516  1.0000
  O   O5        1.0  0.385250048656547  0.486321947892749  0.7609988528392607  1.0000
  O   O6        1.0  0.6147499517270034  0.5136780524289031  0.23900114707388212  1.0000
  O   O7        1.0  0.3908575824112973  0.835928007377194  0.5612589988419774  1.0000
  O   O8        1.0  0.609142417972253  0.16407199294445807  0.43874100107116554  1.0000
  O   O9        1.0  0.3007336380039675  0.6802211528775974  0.6121279389391677  1.0000
  O   O10       1.0  0.6992663615407929  0.31977884659171685  0.38787206113160827  1.0000
  O   O11       1.0  0.7443323642007829  0.7349223319436011  0.2690926048567968  1.0000
  O   O12       1.0  0.25566763534397735  0.2650776675257131  0.7309073952139792  1.0000
  O   O13       1.0  0.8783320302523417  0.5897801935416445  0.2924271113499814  1.0000
  O   O14       1.0  0.12166797013120884  0.41021980678000763  0.7075728885631614  1.0000
  O   O15       1.0  0.8134639685606279  0.41769782004827766  0.6663204161334694  1.0000
  O   O16       1.0  0.1865360309841324  0.5823021794210366  0.3336795839373066  1.0000
  O   O17       1.0  0.6480864497323396  0.33320766699697424  0.6495132914671854  1.0000
  O   O18       1.0  0.35191355074177294  0.6667923324731845  0.3504867084514373  1.0000
  O   O19       1.0  0.6414855916144133  0.4568974846566185  0.9937524427678688  1.0000
  O   O20       1.0  0.3585144087691371  0.5431025156650336  0.00624755714527396  1.0000
  O   O21       1.0  0.8754168368903488  0.6212409357721325  0.9468411919563301  1.0000
  O   O22       1.0  0.12458316256384921  0.3787590645486752  0.05315880810896594  1.0000
  S   S1        1.0  0.47838481639922975  0.5662199054457605  0.7584773790348863  1.0000
  S   S2        1.0  0.5216151830549683  0.4337800948750472  0.24152262103040964  1.0000
