data_image0
_chemical_formula_structural       H32C54N4F4I2
_chemical_formula_sum              "H32 C54 N4 F4 I2"
_cell_length_a       3.906170309658999
_cell_length_b       12.425714664285115
_cell_length_c       20.77163147253157
_cell_angle_alpha    79.18395367775244
_cell_angle_beta     88.75476139216379
_cell_angle_gamma    83.3859215262377

_space_group_name_H-M_alt    "P 1"
_space_group_IT_number       1

loop_
  _space_group_symop_operation_xyz
  'x, y, z'

loop_
  _atom_site_type_symbol
  _atom_site_label
  _atom_site_symmetry_multiplicity
  _atom_site_fract_x
  _atom_site_fract_y
  _atom_site_fract_z
  _atom_site_occupancy
  H   H1        1.0  0.6949490903857931  0.9073150877304813  0.4522384628699261  1.0000
  H   H2        1.0  0.3050509094741596  0.09268491204286815  0.5477615371810599  1.0000
  H   H3        1.0  0.8225020868152995  0.09292642847589679  0.468789746442401  1.0000
  H   H4        1.0  0.17749791304465332  0.9070735712974527  0.531210253608585  1.0000
  H   H5        1.0  0.6750395537270797  0.2557695858067591  0.3781940242403801  1.0000
  H   H6        1.0  0.32496044587317163  0.7442304147773073  0.6218059758085843  1.0000
  H   H7        1.0  0.40467673399337206  0.22340819460247144  0.2750533886751292  1.0000
  H   H8        1.0  0.5953232658665807  0.7765918051708781  0.7249466113758567  1.0000
  H   H9        1.0  0.3767493201997063  0.8534924592475617  0.27083639305968343  1.0000
  H   H10       1.0  0.6232506794005448  0.14650754133650468  0.729163606989281  1.0000
  H   H11       1.0  0.8841975585736971  0.00012340719637880918  0.08605695187286597  1.0000
  H   H12       1.0  0.1158024412862556  0.9998765925769707  0.91394304817812  1.0000
  H   H13       1.0  0.9126724988070466  0.18222616644197454  0.1161177519296611  1.0000
  H   H14       1.0  0.08732750105290611  0.817773833331375  0.8838822481213249  1.0000
  H   H15       1.0  0.4244717867114073  0.9156651142065396  0.0626142262604731  1.0000
  H   H16       1.0  0.5755282131485454  0.08433488556680989  0.9373857737905128  1.0000
  H   H17       1.0  0.6145817722991466  0.8586626591080557  0.9589451169247173  1.0000
  H   H18       1.0  0.3854182275608062  0.14133734066529388  0.04105488312626854  1.0000
  H   H19       1.0  0.5179596426633764  0.6721416159481605  0.9393795177242382  1.0000
  H   H20       1.0  0.48204035719657623  0.3278583838251891  0.060620482326747764  1.0000
  H   H21       1.0  0.2492058324115039  0.5438086532723411  0.024594614318642252  1.0000
  H   H22       1.0  0.7507941674484487  0.45619134650100845  0.9754053857323436  1.0000
  H   H23       1.0  0.03448509469358554  0.4415660575709531  0.09384168560790788  1.0000
  H   H24       1.0  0.9655149049066656  0.5584339430131133  0.9061583144410565  1.0000
  H   H25       1.0  0.7844759778403723  0.3179825427982567  0.18449640968704809  1.0000
  H   H26       1.0  0.2155240220195804  0.6820174569750928  0.8155035903639379  1.0000
  H   H27       1.0  0.599153049834236  0.3841293592855255  0.2872806005022164  1.0000
  H   H28       1.0  0.4008469500257167  0.615870640487824  0.7127193995487695  1.0000
  H   H29       1.0  0.6915113208918728  0.5729099471664382  0.30022073975624625  1.0000
  H   H30       1.0  0.3084886789680799  0.4270900526069114  0.6997792602947397  1.0000
  H   H31       1.0  0.8912030621670589  0.7478333262307194  0.2591499257622209  1.0000
  H   H32       1.0  0.10879693769289378  0.25216667354263  0.740850074288765  1.0000
  C   C1        1.0  0.6365541541644202  0.9801059350938762  0.41400505773956037  1.0000
  C   C2        1.0  0.3634458456955326  0.019894064679473224  0.5859949423114256  1.0000
  C   C3        1.0  0.7067807924549109  0.08352605614373389  0.42324131149335087  1.0000
  C   C4        1.0  0.29321920740504187  0.9164739436296155  0.576758688557635  1.0000
  C   C5        1.0  0.6240409286670943  0.17365651062574097  0.37286970626053156  1.0000
  C   C6        1.0  0.37595907119285843  0.8263434891476085  0.6271302937904544  1.0000
  C   C7        1.0  0.47646842031723485  0.15658885068989137  0.3159462500737054  1.0000
  C   C8        1.0  0.5235315795427178  0.8434111490834583  0.6840537499772804  1.0000
  C   C9        1.0  0.4182410846110967  0.049429409449154506  0.3102333896962726  1.0000
  C   C10       1.0  0.5817589149891543  0.950570591134912  0.6897666103526918  1.0000
  C   C11       1.0  0.2703616666389672  0.03045315556208798  0.24866612476309335  1.0000
  C   C12       1.0  0.7296383332196504  0.9695468443616744  0.7513338747977638  1.0000
  C   C13       1.0  0.2669251350668943  0.9243300592229807  0.2355278840360369  1.0000
  C   C14       1.0  0.7330748647930584  0.07566994055036874  0.764472116014949  1.0000
  C   C15       1.0  0.1288186702038348  0.9094458520260222  0.1765846414297831  1.0000
  C   C16       1.0  0.8711813293964165  0.0905541485580441  0.8234153586191812  1.0000
  C   C17       1.0  0.9997371708163205  0.004821555544666959  0.13256441348682138  1.0000
  C   C18       1.0  0.0002628313480168474  0.9951784450278148  0.8674355865616239  1.0000
  C   C19       1.0  0.014081543743058124  0.10734324731698268  0.14972992039457939  1.0000
  C   C20       1.0  0.9859184558571932  0.8926567532670837  0.8502700796543851  1.0000
  C   C21       1.0  0.10596713492697322  0.7971471328530357  0.16440919273898408  1.0000
  C   C22       1.0  0.894032864673278  0.20285286773103062  0.8355908073099804  1.0000
  C   C23       1.0  0.21483987073301403  0.7639803886273477  0.1034385900625091  1.0000
  C   C24       1.0  0.7851601291269387  0.23601961114600176  0.8965614099884769  1.0000
  C   C25       1.0  0.3778665845606798  0.8349284978691633  0.053913112546466066  1.0000
  C   C26       1.0  0.6221334152992729  0.16507150190418604  0.9460868875045199  1.0000
  C   C27       1.0  0.485057007035812  0.8029869733854679  0.9958609674230141  1.0000
  C   C28       1.0  0.5149429928241407  0.19701302638788168  0.004139032627971801  1.0000
  C   C29       1.0  0.43399393202613257  0.697552425601957  0.9852182926429196  1.0000
  C   C30       1.0  0.5660060678324853  0.30244757432180525  0.014781706917937572  1.0000
  C   C31       1.0  0.2814845983279186  0.6256926029967735  0.03332360869870872  1.0000
  C   C32       1.0  0.7185154012723326  0.3743073975872927  0.9666763913502556  1.0000
  C   C33       1.0  0.1704856261454534  0.6555436872045013  0.09345898141224152  1.0000
  C   C34       1.0  0.8295143737144992  0.3444563125688481  0.9065410186387446  1.0000
  C   C35       1.0  0.0179933244499391  0.579650945664158  0.1447704773821198  1.0000
  C   C36       1.0  0.9820066751503123  0.42034905491990837  0.8552295226668447  1.0000
  C   C37       1.0  0.9630390528396402  0.47155613108380845  0.13887107997978054  1.0000
  C   C38       1.0  0.03696094702031253  0.528443868689541  0.8611289200712056  1.0000
  C   C39       1.0  0.8188171198085584  0.4017753975347754  0.18949185961856696  1.0000
  C   C40       1.0  0.18118287979169273  0.5982246030492908  0.8105081404303974  1.0000
  C   C41       1.0  0.7200675476689975  0.437981243449948  0.24813639976604812  1.0000
  C   C42       1.0  0.2799324521909552  0.5620187563234015  0.7518636002849378  1.0000
  C   C43       1.0  0.7702195845938422  0.543109585731388  0.2554693457800203  1.0000
  C   C44       1.0  0.22978041500640886  0.45689041485267856  0.744530654268944  1.0000
  C   C45       1.0  0.920827652773086  0.6148712212962143  0.20472540885865267  1.0000
  C   C46       1.0  0.07917234965095304  0.3851287784655506  0.795274591191814  1.0000
  C   C47       1.0  0.9711394697071689  0.7230067682469055  0.21290349875902068  1.0000
  C   C48       1.0  0.028860530152784013  0.27699323152644384  0.7870965012919654  1.0000
  C   C49       1.0  0.15978779844063948  0.4955478490153202  0.44054536323494825  1.0000
  C   C50       1.0  0.8402122011596117  0.5044521515687462  0.5594546368140162  1.0000
  C   C51       1.0  0.11739076810131242  0.5965318254928097  0.461481254268318  1.0000
  C   C52       1.0  0.8826092317586403  0.4034681742805398  0.5385187457826679  1.0000
  C   C53       1.0  0.9554463076906463  0.5985974535697819  0.5218997771023214  1.0000
  C   C54       1.0  0.04455369216797171  0.4014025463539804  0.47810022245853584  1.0000
  N   N1        1.0  0.14610090066933396  0.12155146081534507  0.20591251165481153  1.0000
  N   N2        1.0  0.8538990991906187  0.8784485389580043  0.7940874883961745  1.0000
  N   N3        1.0  0.4968348083143751  0.9622079699830498  0.3590933482740573  1.0000
  N   N4        1.0  0.5031651915455776  0.037792029790299594  0.6409066517769286  1.0000
  F   F1        1.0  0.3183886012097269  0.4866990463111636  0.38280486796101704  1.0000
  F   F2        1.0  0.6816113986502259  0.513300953462186  0.6171951320899689  1.0000
  F   F3        1.0  0.9036119942832975  0.6939272148962429  0.5454720582008066  1.0000
  F   F4        1.0  0.09638800557665538  0.3060727848771065  0.4545279418501793  1.0000
  I   I1        1.0  0.27776324469223945  0.741362474353086  0.4055610627886076  1.0000
  I   I2        1.0  0.7222367551677132  0.2586375254202636  0.5944389372623783  1.0000
