data_image0
_chemical_formula_structural       H64C64N24S8
_chemical_formula_sum              "H64 C64 N24 S8"
_cell_length_a       7.372096873822414
_cell_length_b       9.36279984193962
_cell_length_c       23.367543922650714
_cell_angle_alpha    90.0
_cell_angle_beta     90.0
_cell_angle_gamma    90.0

_space_group_name_H-M_alt    "P 1"
_space_group_IT_number       1

loop_
  _space_group_symop_operation_xyz
  'x, y, z'

loop_
  _atom_site_type_symbol
  _atom_site_label
  _atom_site_symmetry_multiplicity
  _atom_site_fract_x
  _atom_site_fract_y
  _atom_site_fract_z
  _atom_site_occupancy
  H   H1        1.0  0.06364123776858846  0.1344764078326347  0.5928204827967475  1.0000
  H   H2        1.0  0.5636412381875727  0.8655235919602029  0.4071795175177607  1.0000
  H   H3        1.0  0.06364123776858846  0.8655235919602029  0.09282048285346538  1.0000
  H   H4        1.0  0.5636412381875727  0.1344764078326347  0.9071795174610429  1.0000
  H   H5        1.0  0.06340064679015218  0.935323254564612  0.6646084980692448  1.0000
  H   H6        1.0  0.5634006472091365  0.06467674629628221  0.33539150181731947  1.0000
  H   H7        1.0  0.06340064679015218  0.06467674629628221  0.16460849812596265  1.0000
  H   H8        1.0  0.5634006472091365  0.935323254564612  0.8353915017606016  1.0000
  H   H9        1.0  0.9574003232462163  0.979110644759965  0.763741187309836  1.0000
  H   H10       1.0  0.457400322827232  0.02088935503287258  0.23625881257672823  1.0000
  H   H11       1.0  0.9574003232462163  0.02088935503287258  0.2637411873665539  1.0000
  H   H12       1.0  0.457400322827232  0.979110644759965  0.7362588125200104  1.0000
  H   H13       1.0  0.8628138762780483  0.21727376899457154  0.7956459023482588  1.0000
  H   H14       1.0  0.3628138758590641  0.7827262307982661  0.2043540979662494  1.0000
  H   H15       1.0  0.8628138762780483  0.7827262307982661  0.2956459024049767  1.0000
  H   H16       1.0  0.3628138758590641  0.21727376899457154  0.7043540979095314  1.0000
  H   H17       1.0  0.815041089779464  0.7181203650090121  0.6697721922255244  1.0000
  H   H18       1.0  0.3150410907169458  0.2818796358518822  0.3302278076610398  1.0000
  H   H19       1.0  0.815041089779464  0.2818796358518822  0.1697721922822423  1.0000
  H   H20       1.0  0.3150410907169458  0.7181203650090121  0.830227807604322  1.0000
  H   H21       1.0  0.8886380879315896  0.6712290240200276  0.5972379675928258  1.0000
  H   H22       1.0  0.38863808886907153  0.32877097577281  0.4027620327216825  1.0000
  H   H23       1.0  0.8886380879315896  0.32877097577281  0.09723796764954362  1.0000
  H   H24       1.0  0.38863808886907153  0.6712290240200276  0.9027620326649646  1.0000
  H   H25       1.0  0.9683414491403174  0.6971620925571096  0.8673515957470338  1.0000
  H   H26       1.0  0.4683414500777992  0.30283790723572807  0.1326484041395304  1.0000
  H   H27       1.0  0.9683414491403174  0.30283790723572807  0.36735159580375165  1.0000
  H   H28       1.0  0.4683414500777992  0.6971620925571096  0.6326484040828125  1.0000
  H   H29       1.0  0.737789090823472  0.6414233937907063  0.878055265795881  1.0000
  H   H30       1.0  0.2377890904044878  0.35857660600213126  0.12194473451862711  1.0000
  H   H31       1.0  0.737789090823472  0.35857660600213126  0.37805526542465495  1.0000
  H   H32       1.0  0.2377890904044878  0.6414233937907063  0.6219447344619092  1.0000
  H   H33       1.0  0.9177246251366846  0.5614724856609726  0.9189887671157536  1.0000
  H   H34       1.0  0.4177246260741665  0.438527514131865  0.0810112327708107  1.0000
  H   H35       1.0  0.9177246251366846  0.438527514131865  0.4189887671724714  1.0000
  H   H36       1.0  0.4177246260741665  0.5614724856609726  0.5810112327140928  1.0000
  H   H37       1.0  0.25532316547327855  0.37361947163823167  0.9245853920940952  1.0000
  H   H38       1.0  0.7553231658922629  0.6263805281546059  0.07541460822041315  1.0000
  H   H39       1.0  0.25532316547327855  0.6263805281546059  0.4245853917228689  1.0000
  H   H40       1.0  0.7553231658922629  0.37361947163823167  0.5754146081636953  1.0000
  H   H41       1.0  0.7346585975058993  0.05581691895826499  0.025884904378576493  1.0000
  H   H42       1.0  0.2346585984433812  0.9441830808345727  0.9741150955079877  1.0000
  H   H43       1.0  0.7346585975058993  0.9441830808345727  0.5258849047498025  1.0000
  H   H44       1.0  0.2346585984433812  0.05581691895826499  0.47411509556470566  1.0000
  H   H45       1.0  0.7573955776173787  0.8722960906860611  0.9493062361807538  1.0000
  H   H46       1.0  0.25739557719839445  0.12770390910677665  0.05069376370581035  1.0000
  H   H47       1.0  0.7573955776173787  0.12770390910677665  0.4493062362374718  1.0000
  H   H48       1.0  0.25739557719839445  0.8722960906860611  0.5506937636490924  1.0000
  H   H49       1.0  0.9606967978335611  0.9075623310814764  0.8657137496761466  1.0000
  H   H50       1.0  0.46069679877104297  0.09243766871136123  0.1342862502104177  1.0000
  H   H51       1.0  0.9606967978335611  0.09243766871136123  0.36571374973286436  1.0000
  H   H52       1.0  0.46069679877104297  0.9075623310814764  0.6342862505816439  1.0000
  H   H53       1.0  0.15971176995528483  0.12182807592346222  0.8587723560689745  1.0000
  H   H54       1.0  0.6597117703742691  0.8781719249374319  0.1412276438175898  1.0000
  H   H55       1.0  0.15971176995528483  0.8781719249374319  0.3587723561256923  1.0000
  H   H56       1.0  0.6597117703742691  0.12182807592346222  0.6412276437608719  1.0000
  H   H57       1.0  0.2261591238607159  0.5830884310423355  0.99650962793006  1.0000
  H   H58       1.0  0.7261591242797002  0.41691156875050206  0.003490371956504191  1.0000
  H   H59       1.0  0.2261591238607159  0.41691156875050206  0.4965096279867779  1.0000
  H   H60       1.0  0.7261591242797002  0.5830884310423355  0.5034903718997863  1.0000
  H   H61       1.0  0.0687043169221654  0.5601017044612603  0.053583599292448235  1.0000
  H   H62       1.0  0.5687043173411498  0.43989829533157726  0.9464164005941159  1.0000
  H   H63       1.0  0.0687043169221654  0.43989829533157726  0.5535835992357303  1.0000
  H   H64       1.0  0.5687043173411498  0.5601017044612603  0.4464164006508338  1.0000
  C   C1        1.0  0.8952802727587962  0.5139471879389379  0.6575117141475398  1.0000
  C   C2        1.0  0.3952802723398119  0.4860528118538997  0.34248828616696836  1.0000
  C   C3        1.0  0.8952802727587962  0.4860528118538997  0.1575117137763138  1.0000
  C   C4        1.0  0.3952802723398119  0.5139471879389379  0.8424882861102504  1.0000
  C   C5        1.0  0.0245352337463542  0.15289052037488077  0.6371445043297093  1.0000
  C   C6        1.0  0.5245352341653385  0.8471094794179569  0.36285549598479894  1.0000
  C   C7        1.0  0.0245352337463542  0.8471094794179569  0.13714450438642714  1.0000
  C   C8        1.0  0.5245352341653385  0.15289052037488077  0.8628554959280811  1.0000
  C   C9        1.0  0.02151161504172878  0.042404899891328944  0.677301779014038  1.0000
  C   C10       1.0  0.5215116154607131  0.9575950999015086  0.32269822087252625  1.0000
  C   C11       1.0  0.02151161504172878  0.9575950999015086  0.1773017790707558  1.0000
  C   C12       1.0  0.5215116154607131  0.042404899891328944  0.8226982208158085  1.0000
  C   C13       1.0  0.9636246201844371  0.06736191317204786  0.7334359574429707  1.0000
  C   C14       1.0  0.4636246197654528  0.9326380866207898  0.26656404287153745  1.0000
  C   C15       1.0  0.9636246201844371  0.9326380866207898  0.23343595749968862  1.0000
  C   C16       1.0  0.4636246197654528  0.06736191317204786  0.7665640428148196  1.0000
  C   C17       1.0  0.911829609004393  0.20357598818486972  0.752176874393832  1.0000
  C   C18       1.0  0.4118296085854087  0.7964240116079678  0.24782312592067618  1.0000
  C   C19       1.0  0.911829609004393  0.7964240116079678  0.2521768744505499  1.0000
  C   C20       1.0  0.4118296085854087  0.20357598818486972  0.7478231258639583  1.0000
  C   C21       1.0  0.9226230794866579  0.3149819765226397  0.7128012924736408  1.0000
  C   C22       1.0  0.42262307906767366  0.6850180232701979  0.2871987074129234  1.0000
  C   C23       1.0  0.9226230794866579  0.6850180232701979  0.21280129253035868  1.0000
  C   C24       1.0  0.42262307906767366  0.3149819765226397  0.7871987073562055  1.0000
  C   C25       1.0  0.9723022191220146  0.2883752601337958  0.6554074591961953  1.0000
  C   C26       1.0  0.4723022187030303  0.7116247396590418  0.34459254111831294  1.0000
  C   C27       1.0  0.9723022191220146  0.7116247396590418  0.1554074588249692  1.0000
  C   C28       1.0  0.4723022187030303  0.2883752601337958  0.844592541061595  1.0000
  C   C29       1.0  0.8471828093004583  0.5480335131181254  0.7631537558687981  1.0000
  C   C30       1.0  0.34718280888147407  0.4519664866747122  0.23684624444571015  1.0000
  C   C31       1.0  0.8471828093004583  0.4519664866747122  0.26315375592551593  1.0000
  C   C32       1.0  0.34718280888147407  0.5480335131181254  0.7368462443889922  1.0000
  C   C33       1.0  0.8797084467281816  0.6070830986409819  0.877512932804363  1.0000
  C   C34       1.0  0.37970844766566353  0.3929169022199123  0.12248706708220115  1.0000
  C   C35       1.0  0.8797084467281816  0.3929169022199123  0.37751293286108095  1.0000
  C   C36       1.0  0.37970844766566353  0.6070830986409819  0.6224870674534273  1.0000
  C   C37       1.0  0.07489686441324707  0.39692344092983617  0.9963540754247547  1.0000
  C   C38       1.0  0.5748968648322313  0.6030765588630015  0.0036459248897534836  1.0000
  C   C39       1.0  0.07489686441324707  0.6030765588630015  0.4963540754814726  1.0000
  C   C40       1.0  0.5748968648322313  0.39692344092983617  0.5036459248330356  1.0000
  C   C41       1.0  0.8285920091053792  0.0700148749376872  0.9903219095939518  1.0000
  C   C42       1.0  0.328592008686395  0.9299851259232069  0.0096780907205564  1.0000
  C   C43       1.0  0.8285920091053792  0.9299851259232069  0.4903219092227257  1.0000
  C   C44       1.0  0.328592008686395  0.0700148749376872  0.5096780906638385  1.0000
  C   C45       1.0  0.842318638276427  0.967466371482687  0.9468985505383846  1.0000
  C   C46       1.0  0.3423186378574426  0.03253362937820714  0.05310144977612364  1.0000
  C   C47       1.0  0.842318638276427  0.03253362937820714  0.4468985501671585  1.0000
  C   C48       1.0  0.3423186378574426  0.967466371482687  0.5531014497194058  1.0000
  C   C49       1.0  0.9582941394986041  0.9866410930436265  0.8999157716192956  1.0000
  C   C50       1.0  0.45829414043608596  0.01335890674921112  0.10008422826726864  1.0000
  C   C51       1.0  0.9582941394986041  0.01335890674921112  0.3999157716760135  1.0000
  C   C52       1.0  0.45829414043608596  0.9866410930436265  0.6000842282105507  1.0000
  C   C53       1.0  0.06929384390131192  0.10731333542978454  0.8951373952366682  1.0000
  C   C54       1.0  0.5692938443202962  0.8926866643630531  0.10486260464989593  1.0000
  C   C55       1.0  0.06929384390131192  0.8926866643630531  0.3951373952933862  1.0000
  C   C56       1.0  0.5692938443202962  0.10731333542978454  0.6048626045931781  1.0000
  C   C57       1.0  0.057841992217189074  0.20706414029228828  0.9390118106820252  1.0000
  C   C58       1.0  0.5578419926361733  0.7929358595005493  0.06098818920453911  1.0000
  C   C59       1.0  0.057841992217189074  0.7929358595005493  0.439011810738743  1.0000
  C   C60       1.0  0.5578419926361733  0.20706414029228828  0.5609881891478212  1.0000
  C   C61       1.0  0.9368798495479965  0.19194220856351288  0.9858862932389301  1.0000
  C   C62       1.0  0.43687984912901234  0.8080577912293248  0.01411370664763422  1.0000
  C   C63       1.0  0.9368798495479965  0.8080577912293248  0.48588629329564786  1.0000
  C   C64       1.0  0.43687984912901234  0.19194220856351288  0.5141137065909164  1.0000
  N   N1        1.0  0.8776290668363583  0.4635807550384234  0.7150197609687294  1.0000
  N   N2        1.0  0.3776290677738402  0.5364192447544143  0.28498023891783486  1.0000
  N   N3        1.0  0.8776290668363583  0.5364192447544143  0.2150197610254473  1.0000
  N   N4        1.0  0.3776290677738402  0.4635807550384234  0.784980238861117  1.0000
  N   N5        1.0  0.9512468731795084  0.41103586373397755  0.6224947730129244  1.0000
  N   N6        1.0  0.451246872760524  0.5889641371269166  0.3775052268736397  1.0000
  N   N7        1.0  0.9512468731795084  0.5889641371269166  0.12249477306964236  1.0000
  N   N8        1.0  0.451246872760524  0.41103586373397755  0.8775052268169219  1.0000
  N   N9        1.0  0.8619334320691493  0.6466265457134658  0.6401775333991999  1.0000
  N   N10       1.0  0.361933431650165  0.3533734540793718  0.35982246648736427  1.0000
  N   N11       1.0  0.8619334320691493  0.3533734540793718  0.14017753345591782  1.0000
  N   N12       1.0  0.361933431650165  0.6466265457134658  0.8598224664306464  1.0000
  N   N13       1.0  0.1445559191963585  0.33709682395027685  0.9474500693476638  1.0000
  N   N14       1.0  0.6445559196153428  0.6629031769106174  0.05254993096684442  1.0000
  N   N15       1.0  0.1445559191963585  0.6629031769106174  0.4474500689764377  1.0000
  N   N16       1.0  0.6445559196153428  0.33709682395027685  0.5525499309101265  1.0000
  N   N17       1.0  0.9487074315090555  0.312523048596308  0.021085103835940897  1.0000
  N   N18       1.0  0.4487074310900711  0.6874769511965297  0.9789148960506233  1.0000
  N   N19       1.0  0.9487074315090555  0.6874769511965297  0.521085103779223  1.0000
  N   N20       1.0  0.4487074310900711  0.312523048596308  0.4789148961073412  1.0000
  N   N21       1.0  0.11975857277933911  0.5282658044065764  0.014427457635939556  1.0000
  N   N22       1.0  0.6197585718418572  0.47173419538626116  0.9855725422506247  1.0000
  N   N23       1.0  0.11975857277933911  0.47173419538626116  0.5144274580071657  1.0000
  N   N24       1.0  0.6197585718418572  0.5282658044065764  0.48557254230734254  1.0000
  S   S1        1.0  0.7596045271576141  0.710994734735346  0.7613156611104368  1.0000
  S   S2        1.0  0.25960452673862977  0.2890052650574916  0.23868433877612738  1.0000
  S   S3        1.0  0.7596045271576141  0.2890052650574916  0.2613156611671547  1.0000
  S   S4        1.0  0.25960452673862977  0.710994734735346  0.7386843391473534  1.0000
  S   S5        1.0  0.9151491557247973  0.46690260646375054  0.8270076792823607  1.0000
  S   S6        1.0  0.415149155305813  0.5330973933290871  0.17299232060420353  1.0000
  S   S7        1.0  0.9151491557247973  0.5330973933290871  0.3270076793390786  1.0000
  S   S8        1.0  0.415149155305813  0.46690260646375054  0.6729923209754296  1.0000
