data_image0
_chemical_formula_structural       H40C38N8O10S2
_chemical_formula_sum              "H40 C38 N8 O10 S2"
_cell_length_a       7.908939414098998
_cell_length_b       9.284126580452341
_cell_length_c       13.202410408500743
_cell_angle_alpha    73.61318852347335
_cell_angle_beta     76.23785361206643
_cell_angle_gamma    85.28849787843842

_space_group_name_H-M_alt    "P 1"
_space_group_IT_number       1

loop_
  _space_group_symop_operation_xyz
  'x, y, z'

loop_
  _atom_site_type_symbol
  _atom_site_label
  _atom_site_symmetry_multiplicity
  _atom_site_fract_x
  _atom_site_fract_y
  _atom_site_fract_z
  _atom_site_occupancy
  H   H1        1.0  0.5926209216920323  0.6982133029413756  0.936931471834932  1.0000
  H   H2        1.0  0.40737907877973073  0.30178669701646166  0.06306852790881778  1.0000
  H   H3        1.0  0.6615668950480678  0.5289944459689843  0.022692139606168456  1.0000
  H   H4        1.0  0.33843310542369515  0.47100555398885297  0.9773078601375814  1.0000
  H   H5        1.0  0.7866230325159543  0.6962687148486951  0.9828078333024873  1.0000
  H   H6        1.0  0.21337696665397365  0.3037312851183814  0.017192166632048297  1.0000
  H   H7        1.0  0.1759808592317593  0.09806553758985243  0.1945854227997443  1.0000
  H   H8        1.0  0.8240191399381687  0.9019344623772242  0.8054145771347915  1.0000
  H   H9        1.0  0.8634211394963888  0.1485083341291389  0.2666498938051226  1.0000
  H   H10       1.0  0.13657886097537414  0.8514916658286984  0.7333501059386274  1.0000
  H   H11       1.0  0.4256242133312454  0.4867061451002212  0.18954496548638866  1.0000
  H   H12       1.0  0.5743757871528158  0.5132938548461372  0.8104550350152511  1.0000
  H   H13       1.0  0.984827926584045  0.19929347391079588  0.5555926422972849  1.0000
  H   H14       1.0  0.015172073887717888  0.8007065260470414  0.4444073574464649  1.0000
  H   H15       1.0  0.2968080653578317  0.1540140669458594  0.48285236446392465  1.0000
  H   H16       1.0  0.7031919351160745  0.8459859341232613  0.5171476358241007  1.0000
  H   H17       1.0  0.2865897167446262  0.5331791011468754  0.4409001892641669  1.0000
  H   H18       1.0  0.7134102837271368  0.46682089881096184  0.559099810479583  1.0000
  H   H19       1.0  0.20988813664064132  0.4558553079537732  0.3514310299494669  1.0000
  H   H20       1.0  0.7901118638311216  0.544144692004064  0.648568969794283  1.0000
  H   H21       1.0  0.10623073263174491  0.6183590656556855  0.3862012310440971  1.0000
  H   H22       1.0  0.8937692678400181  0.38164093430215174  0.6137987686996528  1.0000
  H   H23       1.0  0.6947439343468014  0.19225455264065805  0.5374278304918099  1.0000
  H   H24       1.0  0.3052560661249616  0.8077454473171792  0.4625721692519401  1.0000
  H   H25       1.0  0.6464331226092883  0.15083255788788966  0.4318581451101061  1.0000
  H   H26       1.0  0.35356687656063973  0.8491674420791868  0.5681418548244297  1.0000
  H   H27       1.0  0.6594618062023633  0.9096952048821719  0.0460125446010324  1.0000
  H   H28       1.0  0.340538194281698  0.0903047950641865  0.9539874559006073  1.0000
  H   H29       1.0  0.8537916234705946  0.4109085235540265  0.22920116272309818  1.0000
  H   H30       1.0  0.14620837699101347  0.5890914775265731  0.7707988368070374  1.0000
  H   H31       1.0  0.0731294197274546  0.5627874949509529  0.07764741423415977  1.0000
  H   H32       1.0  0.9268705807566064  0.4372125049954056  0.92235258626748  1.0000
  H   H33       1.0  0.7220180003627602  0.7911356094792034  0.3606089756040588  1.0000
  H   H34       1.0  0.2779820001090027  0.2088643904786339  0.6393910241396911  1.0000
  H   H35       1.0  0.940696989884572  0.9430600795267324  0.2075290988670963  1.0000
  H   H36       1.0  0.059303010599489184  0.056939920419626096  0.7924709016345434  1.0000
  H   H37       1.0  0.6788473347291483  0.39814282104603543  0.4048630625858905  1.0000
  H   H38       1.0  0.32115266574261453  0.6018571789118018  0.5951369371578593  1.0000
  H   H39       1.0  0.3258778334986937  0.8634021844465364  0.9127385099423776  1.0000
  H   H40       1.0  0.6741221656712343  0.13659781552054015  0.08726148999215819  1.0000
  C   C1        1.0  0.5521133069532709  0.6957021483861797  0.1027989968064132  1.0000
  C   C2        1.0  0.447886692216657  0.3042978515808967  0.8972010031281226  1.0000
  C   C3        1.0  0.6546954273563838  0.651541975298821  0.005768416060608593  1.0000
  C   C4        1.0  0.3453045731153792  0.34845802465901643  0.9942315836831414  1.0000
  C   C5        1.0  0.4838590162467149  0.8885924116280264  0.19431532908045432  1.0000
  C   C6        1.0  0.5161409842373461  0.11140758831833211  0.8056846714211854  1.0000
  C   C7        1.0  0.255443249273995  0.12705167145697177  0.33331909023048384  1.0000
  C   C8        1.0  0.7445567511977681  0.8729483285008655  0.666680909513266  1.0000
  C   C9        1.0  0.13442132356212588  0.12425190517094921  0.2723107614816176  1.0000
  C   C10       1.0  0.8655786756078021  0.8757480947961274  0.727689238452918  1.0000
  C   C11       1.0  0.9593351216885222  0.15129073975926768  0.3130697952442913  1.0000
  C   C12       1.0  0.0406648787832407  0.8487092601985695  0.6869302044994586  1.0000
  C   C13       1.0  0.9033385218995581  0.18081876734242483  0.414828909864616  1.0000
  C   C14       1.0  0.09666147727036999  0.8191812326246517  0.5851710900699196  1.0000
  C   C15       1.0  0.44001728675356333  0.6027096047495301  0.18811439513996248  1.0000
  C   C16       1.0  0.5599827124163645  0.3972903952175463  0.8118856047945733  1.0000
  C   C17       1.0  0.02728177574508352  0.1826866674453954  0.474940466727849  1.0000
  C   C18       1.0  0.9727182234248444  0.8173133325216811  0.5250595332066867  1.0000
  C   C19       1.0  0.20194815884255182  0.15608283068140524  0.43471046391814294  1.0000
  C   C20       1.0  0.7980518403396741  0.8439171692741924  0.5652895367742827  1.0000
  C   C21       1.0  0.3531647222494276  0.6585642279186091  0.27544523883391664  1.0000
  C   C22       1.0  0.6468352782223353  0.34143577203922804  0.7245547609098332  1.0000
  C   C23       1.0  0.2318093412049928  0.5605366153945603  0.36845271740094854  1.0000
  C   C24       1.0  0.7681906592790683  0.43946338455179806  0.6315472831006912  1.0000
  C   C25       1.0  0.7792319161315355  0.589407566877095  0.3073078400289199  1.0000
  C   C26       1.0  0.22076808303839235  0.41059243308998156  0.6926921599056158  1.0000
  C   C27       1.0  0.876495857017967  0.5264784581456743  0.2254316672100977  1.0000
  C   C28       1.0  0.12350414345379594  0.473521541812163  0.7745683325336522  1.0000
  C   C29       1.0  0.9977306607351275  0.6121707669297649  0.1403110636518634  1.0000
  C   C30       1.0  0.0022693384348005  0.3878292330373117  0.8596889362826723  1.0000
  C   C31       1.0  0.023409192401968856  0.7629642569944318  0.1337545753985749  1.0000
  C   C32       1.0  0.9765908067679591  0.23703574297264465  0.8662454245359609  1.0000
  C   C33       1.0  0.15379011462682918  0.8564001343875002  0.04703238690802704  1.0000
  C   C34       1.0  0.8462098858449337  0.14359986557033697  0.9529676128357228  1.0000
  C   C35       1.0  0.802208073272343  0.7410839588920036  0.29988572181046014  1.0000
  C   C36       1.0  0.1977919271994199  0.25891604106583366  0.7001142779332898  1.0000
  C   C37       1.0  0.9226927700423141  0.82578360576184  0.21419332434368238  1.0000
  C   C38       1.0  0.07730723042944884  0.17421639419599733  0.7858066754000675  1.0000
  N   N1        1.0  0.5686044975514328  0.8375770371282679  0.10718792789391927  1.0000
  N   N2        1.0  0.43139550292033013  0.16242296282956925  0.8928120718498307  1.0000
  N   N3        1.0  0.5175416167945336  0.033028321871475266  0.1838729890744211  1.0000
  N   N4        1.0  0.48245838368952754  0.9669716780748832  0.8161270114272188  1.0000
  N   N5        1.0  0.727115032163756  0.21072223039659757  0.4547970054979749  1.0000
  N   N6        1.0  0.27288496832030523  0.7892777695497609  0.545202995003665  1.0000
  N   N7        1.0  0.3767504158248865  0.7989528569500338  0.27933123292850964  1.0000
  N   N8        1.0  0.6232495846468765  0.20104714300780346  0.7206687668152403  1.0000
  O   O1        1.0  0.5499657617093919  0.010133654044334531  0.37607659263317106  1.0000
  O   O2        1.0  0.450034238762371  0.9898663459135026  0.6239234071105788  1.0000
  O   O3        1.0  0.5544345958680327  0.25467233552800866  0.2394818178330784  1.0000
  O   O4        1.0  0.4455654046037303  0.7453276644298287  0.7605181819106714  1.0000
  O   O5        1.0  0.23323514539099424  0.7933399774894462  0.9689649880511826  1.0000
  O   O6        1.0  0.7667648550807687  0.2066600224683911  0.031035011692567286  1.0000
  O   O7        1.0  0.18920312755331972  0.9850538760219625  0.047581050792733365  1.0000
  O   O8        1.0  0.8107968729184432  0.01494612393587462  0.9524189489510165  1.0000
  O   O9        1.0  0.6609705644817677  0.5113954363118078  0.3922325295916274  1.0000
  O   O10       1.0  0.33902943468816016  0.48860456365526866  0.6077674703429083  1.0000
  S   S1        1.0  0.48127468073255814  0.1048583299501847  0.2852548556473926  1.0000
  S   S2        1.0  0.5187253184373698  0.8951416700168918  0.7147451442871431  1.0000
