data_image0
_chemical_formula_structural       H56C56N12O8Cl4
_chemical_formula_sum              "H56 C56 N12 O8 Cl4"
_cell_length_a       5.95407669335685
_cell_length_b       7.657699064644628
_cell_length_c       30.281572917887715
_cell_angle_alpha    90.0
_cell_angle_beta     97.17283468927583
_cell_angle_gamma    90.0

_space_group_name_H-M_alt    "P 1"
_space_group_IT_number       1

loop_
  _space_group_symop_operation_xyz
  'x, y, z'

loop_
  _atom_site_type_symbol
  _atom_site_label
  _atom_site_symmetry_multiplicity
  _atom_site_fract_x
  _atom_site_fract_y
  _atom_site_fract_z
  _atom_site_occupancy
  H   H1        1.0  0.38832713389386114  0.7007919970081825  0.5359532183052916  1.0000
  H   H2        1.0  0.6116728664954143  0.20079199600557246  0.9640467817648104  1.0000
  H   H3        1.0  0.61167286622462  0.2992080036911623  0.46404678181501163  1.0000
  H   H4        1.0  0.3883271336230669  0.7992080033878971  0.03595321835549282  1.0000
  H   H5        1.0  0.11908645836258924  0.5635421780837855  0.6267769633158747  1.0000
  H   H6        1.0  0.8809135418170028  0.06354217838705067  0.8732230364213889  1.0000
  H   H7        1.0  0.8809135415462085  0.4364578213096841  0.3732230364715901  1.0000
  H   H8        1.0  0.11908645809179498  0.9364578210064188  0.1267769633660759  1.0000
  H   H9        1.0  0.5780980666259088  0.6091223474079502  0.6853569025471496  1.0000
  H   H10       1.0  0.42190193376336665  0.1091223477112154  0.8146430975229524  1.0000
  H   H11       1.0  0.4219019334925724  0.3908776519855194  0.3146430975731536  1.0000
  H   H12       1.0  0.5780980663551145  0.8908776529881294  0.18535690259735085  1.0000
  H   H13       1.0  0.5800768079794251  0.5751916055745927  0.7636951557384376  1.0000
  H   H14       1.0  0.41992319240985043  0.07519160587785792  0.7363048443316644  1.0000
  H   H15       1.0  0.4199231921390561  0.42480839381887686  0.2363048443818656  1.0000
  H   H16       1.0  0.5800768077086308  0.9248083935156116  0.26369515578863884  1.0000
  H   H17       1.0  0.40714573230996065  0.4638244647662751  0.8290554448483191  1.0000
  H   H18       1.0  0.5928542680793147  0.9638244644630098  0.6709445552217829  1.0000
  H   H19       1.0  0.5928542678085205  0.5361755359330698  0.17094455527198418  1.0000
  H   H20       1.0  0.4071457320391663  0.03617553623633495  0.32905544489852023  1.0000
  H   H21       1.0  0.02668912868318366  0.3278425279978675  0.8183670604194774  1.0000
  H   H22       1.0  0.9733108717060918  0.8278425276946022  0.6816329396506247  1.0000
  H   H23       1.0  0.9733108714352975  0.6721574713956021  0.1816329397008259  1.0000
  H   H24       1.0  0.026689128202705966  0.17215747169886728  0.31836706013684013  1.0000
  H   H25       1.0  0.8170439494831978  0.3019343957606016  0.7420320281274775  1.0000
  H   H26       1.0  0.18295605090607767  0.8019343954573364  0.7579679719426244  1.0000
  H   H27       1.0  0.18295605042559995  0.698065603632868  0.25796797165998725  1.0000
  H   H28       1.0  0.8170439492124035  0.19806560393613315  0.24203202817767874  1.0000
  H   H29       1.0  0.9878860160441347  0.4096890689377844  0.6770447629217956  1.0000
  H   H30       1.0  0.012113984345140716  0.9096890686345191  0.8229552371483064  1.0000
  H   H31       1.0  0.012113984074346426  0.5903109317615605  0.32295523719850766  1.0000
  H   H32       1.0  0.9878860157733406  0.09031093206482567  0.17704476297199678  1.0000
  H   H33       1.0  0.7430883394516522  0.8352468170929388  0.5640848839241132  1.0000
  H   H34       1.0  0.25691166093762324  0.33524681739620404  0.9359151161459889  1.0000
  H   H35       1.0  0.25691166066682897  0.164753183606406  0.43591511619619006  1.0000
  H   H36       1.0  0.7430883389711744  0.6647531833031407  0.0640848836414759  1.0000
  H   H37       1.0  0.9521243783720312  0.9539235700350674  0.5383102554973485  1.0000
  H   H38       1.0  0.04787562033751203  0.45392357033833264  0.9616897445724206  1.0000
  H   H39       1.0  0.04787562174644995  0.046076429358402095  0.4616897446229548  1.0000
  H   H40       1.0  0.9521243778915534  0.5460764290551369  0.03831025521471113  1.0000
  H   H41       1.0  0.3946298081285335  0.7351454376147191  0.38094573659496456  1.0000
  H   H42       1.0  0.6053701915094699  0.23514543791798434  0.1190542632427014  1.0000
  H   H43       1.0  0.6053701919899477  0.26485456308462574  0.6190542635253387  1.0000
  H   H44       1.0  0.39462980839932776  0.7648545627813604  0.8809457365447634  1.0000
  H   H45       1.0  0.2230550701325832  0.46731792537032424  0.45105365090142185  1.0000
  H   H46       1.0  0.7769449295054203  0.9673179250670589  0.048946348936244104  1.0000
  H   H47       1.0  0.7769449299858979  0.5326820753290206  0.5489463492188813  1.0000
  H   H48       1.0  0.2230550704033775  0.032682075632285805  0.9510536508512206  1.0000
  H   H49       1.0  0.06657776122614613  0.63396026652626  0.42085859385340274  1.0000
  H   H50       1.0  0.9334222386215407  0.13396026682952522  0.07914140631710173  1.0000
  H   H51       1.0  0.9334222388923351  0.3660397328672096  0.5791414062669006  1.0000
  H   H52       1.0  0.06657776149694038  0.8660397338698196  0.9208585938032016  1.0000
  H   H53       1.0  0.09544755522339282  0.6331780446147649  0.48034754599964985  1.0000
  H   H54       1.0  0.9045524444146106  0.13317804491803018  0.01965245383801614  1.0000
  H   H55       1.0  0.904552444685405  0.3668219547787046  0.519652453787815  1.0000
  H   H56       1.0  0.09544755549418704  0.8668219544754394  0.9803475459494485  1.0000
  C   C1        1.0  0.4198753965243964  0.6640150581884968  0.6013759239032069  1.0000
  C   C2        1.0  0.5801246038648791  0.16401505849176204  0.8986240761668951  1.0000
  C   C3        1.0  0.5801246035940847  0.33598494120497274  0.3986240762170963  1.0000
  C   C4        1.0  0.4198753962536021  0.8359849422075829  0.10137592395340818  1.0000
  C   C5        1.0  0.29702578351190795  0.594256918636327  0.63665432688368  1.0000
  C   C6        1.0  0.7029742151976353  0.09425691893959225  0.8633456731860891  1.0000
  C   C7        1.0  0.7029742166065731  0.40574308075714255  0.3633456732366233  1.0000
  C   C8        1.0  0.29702578492084586  0.9057430817597526  0.13665432693421412  1.0000
  C   C9        1.0  0.4004244102091942  0.5703806251888403  0.6784725532308831  1.0000
  C   C10       1.0  0.5995755899703977  0.07038062549210548  0.8215274465063805  1.0000
  C   C11       1.0  0.5995755896996035  0.4296193742046293  0.32152744655658166  1.0000
  C   C12       1.0  0.40042440993839995  0.9296193739013641  0.17847255328108433  1.0000
  C   C13       1.0  0.2963785304546802  0.5011258744441254  0.7157460910359625  1.0000
  C   C14       1.0  0.7036214699345953  0.0011258747473905995  0.7842539090341395  1.0000
  C   C15       1.0  0.7036214696638009  0.4988741249493442  0.2842539090843406  1.0000
  C   C16       1.0  0.2963785299742024  0.9988741246460789  0.21574609075332526  1.0000
  C   C17       1.0  0.4128725751839536  0.5145357380510815  0.7590847578874053  1.0000
  C   C18       1.0  0.5871274252053218  0.014535737048471439  0.7409152421826968  1.0000
  C   C19       1.0  0.5871274249345275  0.4854642626482633  0.240915242232898  1.0000
  C   C20       1.0  0.4128725749131593  0.9854642623449982  0.2590847579376064  1.0000
  C   C21       1.0  0.31510894103977294  0.4543550367582204  0.795739759844266  1.0000
  C   C22       1.0  0.6848910593495025  0.9543550377608304  0.704260240225836  1.0000
  C   C23       1.0  0.6848910590787082  0.5456449626352491  0.2042602402760372  1.0000
  C   C24       1.0  0.3151089407689787  0.04564496293851435  0.29573975989446727  1.0000
  C   C25       1.0  0.10038292940175912  0.37824867046200894  0.7897340940728135  1.0000
  C   C26       1.0  0.8996170709875163  0.8782486701587437  0.7102659059972886  1.0000
  C   C27       1.0  0.899617070716722  0.6217513302373359  0.21026590604748976  1.0000
  C   C28       1.0  0.1003829291309648  0.12175132923472581  0.28973409412301465  1.0000
  C   C29       1.0  0.9832345878766087  0.3631852148435224  0.7468700075341035  1.0000
  C   C30       1.0  0.01676541230298329  0.8631852145402572  0.75312999220316  1.0000
  C   C31       1.0  0.01676541203218902  0.6368147858558224  0.25312999225336125  1.0000
  C   C32       1.0  0.9832345876058144  0.13681478615908763  0.2468700075843047  1.0000
  C   C33       1.0  0.07988805000777481  0.4237372757283437  0.7103215298691637  1.0000
  C   C34       1.0  0.9201119503815007  0.9237372767309537  0.7896784702009384  1.0000
  C   C35       1.0  0.9201119501107063  0.576262723665126  0.28967847025113946  1.0000
  C   C36       1.0  0.07988804952729703  0.07626272396839111  0.2103215295865265  1.0000
  C   C37       1.0  0.6954505905941901  0.8460950300220083  0.495931675153641  1.0000
  C   C38       1.0  0.3045494092534968  0.3460950290193981  0.004068325016863383  1.0000
  C   C39       1.0  0.3045494095242911  0.1539049706773367  0.5040683249666622  1.0000
  C   C40       1.0  0.6954505908649845  0.6539049703740715  0.9959316751034399  1.0000
  C   C41       1.0  0.6800093282428974  0.8605265660574515  0.42035879616939265  1.0000
  C   C42       1.0  0.319990671395106  0.3605265663607168  0.07964120366827332  1.0000
  C   C43       1.0  0.3199906716659003  0.139473433336018  0.5796412036180721  1.0000
  C   C44       1.0  0.6800093285136917  0.639473434338628  0.9203587961191915  1.0000
  C   C45       1.0  0.4787308238690771  0.7663463803500012  0.41385619100579596  1.0000
  C   C46       1.0  0.5212691774486584  0.26634637934739114  0.08614380883220299  1.0000
  C   C47       1.0  0.521269176249404  0.23365362034934367  0.5861438091145073  1.0000
  C   C48       1.0  0.4787308224601392  0.7336536200460785  0.9138561909552617  1.0000
  C   C49       1.0  0.3930257028194203  0.7127036325046908  0.45270316478192146  1.0000
  C   C50       1.0  0.6069742968185831  0.21270363150208083  0.04729683505574451  1.0000
  C   C51       1.0  0.6069742970893773  0.28729636819465393  0.5472968350055434  1.0000
  C   C52       1.0  0.39302570309021456  0.7872963678913887  0.9527031647317202  1.0000
  C   C53       1.0  0.1815846345029513  0.6070058304407543  0.4511468236703343  1.0000
  C   C54       1.0  0.8184153651350521  0.10700582943814427  0.048853176167331695  1.0000
  C   C55       1.0  0.8184153654058464  0.3929941702585905  0.5488531761171306  1.0000
  C   C56       1.0  0.18158463498342894  0.8929941699553252  0.9511468239529715  1.0000
  N   N1        1.0  0.5010649686248817  0.7511675898257494  0.4931246813314395  1.0000
  N   N2        1.0  0.49893503269285383  0.2511675901290145  0.0068753185065594845  1.0000
  N   N3        1.0  0.498935031283916  0.2488324095677202  0.5068753184560253  1.0000
  N   N4        1.0  0.5010649672159438  0.7488324105703302  0.9931246812809053  1.0000
  N   N5        1.0  0.8026604659508079  0.884435267412053  0.5360612356226424  1.0000
  N   N6        1.0  0.1973395344384675  0.3844352677153183  0.9639387644474597  1.0000
  N   N7        1.0  0.19733953395798973  0.11556473198141647  0.46393876416482244  1.0000
  N   N8        1.0  0.8026604656800136  0.6155647329840266  0.036061235672843535  1.0000
  N   N9        1.0  0.7873794335144622  0.9038021789017882  0.45960374837339646  1.0000
  N   N10       1.0  0.2126205680129569  0.4038021792050534  0.040396251797441  1.0000
  N   N11       1.0  0.21262056660401907  0.09619782049168135  0.5403962517469069  1.0000
  N   N12       1.0  0.7873794321055243  0.5961978201884162  0.9596037483228622  1.0000
  O   O1        1.0  0.2965209354283289  0.6595887677696826  0.5616148207086017  1.0000
  O   O2        1.0  0.7034790632812142  0.1595887667670724  0.9383851793611673  1.0000
  O   O3        1.0  0.7034790630104201  0.34041123292966236  0.4383851794113685  1.0000
  O   O4        1.0  0.2965209366275834  0.8404112326263972  0.06161482042629753  1.0000
  O   O5        1.0  0.6177620466599394  0.7201816176692407  0.6079549596855728  1.0000
  O   O6        1.0  0.38223795372933594  0.22018161666663072  0.8920450403845293  1.0000
  O   O7        1.0  0.3822379534585416  0.27981838303010403  0.39204504043473043  1.0000
  O   O8        1.0  0.6177620463891452  0.7798183827268389  0.10795495973577403  1.0000
  Cl  Cl1       1.0  0.810621945133893  0.925220560404563  0.37469152237806647  1.0000
  Cl  Cl2       1.0  0.18937805471379382  0.42522056070782815  0.12530847779243795  1.0000
  Cl  Cl3       1.0  0.18937805498458815  0.07477944029478188  0.6253084777422369  1.0000
  Cl  Cl4       1.0  0.8106219454046873  0.5747794399915166  0.8746915223278653  1.0000
