data_image0
_chemical_formula_structural       H44C48N16O16Cl4
_chemical_formula_sum              "H44 C48 N16 O16 Cl4"
_cell_length_a       9.554685592842654
_cell_length_b       14.873996140588392
_cell_length_c       11.160419608344966
_cell_angle_alpha    90.0
_cell_angle_beta     120.23990025575264
_cell_angle_gamma    90.0

_space_group_name_H-M_alt    "P 1"
_space_group_IT_number       1

loop_
  _space_group_symop_operation_xyz
  'x, y, z'

loop_
  _atom_site_type_symbol
  _atom_site_label
  _atom_site_symmetry_multiplicity
  _atom_site_fract_x
  _atom_site_fract_y
  _atom_site_fract_z
  _atom_site_occupancy
  H   H1        1.0  0.3886708009197232  0.28866981068277653  0.3473803241054352  1.0000
  H   H2        1.0  0.6113291997083738  0.7886698106629974  0.1526196764036748  1.0000
  H   H3        1.0  0.6113291996422582  0.7113301892776651  0.6526196764468418  1.0000
  H   H4        1.0  0.3886708008536075  0.21133018929744424  0.8473803241486023  1.0000
  H   H5        1.0  0.2480768492774043  0.470639063223737  0.11987478432390838  1.0000
  H   H6        1.0  0.7519231503057788  0.9706390632039578  0.38012521618807266  1.0000
  H   H7        1.0  0.7519231502396632  0.5293609367367046  0.8801252162312397  1.0000
  H   H8        1.0  0.2480768492112885  0.02936093675648381  0.6198747843670753  1.0000
  H   H9        1.0  0.9514264296841791  0.4856617947000651  0.6752845264972418  1.0000
  H   H10       1.0  0.04857357019867575  0.9856617946802859  0.824715473061051  1.0000
  H   H11       1.0  0.04857357026479147  0.5143382052603764  0.324715473017884  1.0000
  H   H12       1.0  0.951426429750295  0.0143382052801557  0.17528452645407472  1.0000
  H   H13       1.0  0.9331331344049264  0.31644855326779747  0.6629592304620106  1.0000
  H   H14       1.0  0.06686686547792851  0.8164485532480182  0.8370407690962822  1.0000
  H   H15       1.0  0.06686686554404425  0.683551446692644  0.3370407690531152  1.0000
  H   H16       1.0  0.933133133426128  0.1835514467124233  0.1629592304217145  1.0000
  H   H17       1.0  0.06976432015402975  0.22752914670758573  0.8812245554604008  1.0000
  H   H18       1.0  0.9302356797288253  0.7275291466878064  0.6187754440978921  1.0000
  H   H19       1.0  0.9302356797949409  0.7724708532528558  0.11877544405472498  1.0000
  H   H20       1.0  0.06976432022014539  0.27247085327263504  0.3812245554172337  1.0000
  H   H21       1.0  0.42247197175345763  0.030488370153769644  0.3735260157424494  1.0000
  H   H22       1.0  0.5775280282616287  0.5304883701339904  0.1264739837295093  1.0000
  H   H23       1.0  0.5775280281955131  0.9695116304789863  0.6264739837726764  1.0000
  H   H24       1.0  0.4224719716873419  0.46951163049876543  0.8735260157856165  1.0000
  H   H25       1.0  0.3505762123063695  0.13362330682448173  0.2765987595285517  1.0000
  H   H26       1.0  0.6494237877087168  0.6336233068047025  0.223401239943407  1.0000
  H   H27       1.0  0.6494237876426011  0.8663766931359598  0.723401239986574  1.0000
  H   H28       1.0  0.3505762122402538  0.366376693155739  0.7765987595717188  1.0000
  H   H29       1.0  0.7042741227061557  0.2771438402320932  0.8258176744205119  1.0000
  H   H30       1.0  0.2957258771766992  0.777143840212314  0.674182325137781  1.0000
  H   H31       1.0  0.2957258772428149  0.7228561597283484  0.17418232509461393  1.0000
  H   H32       1.0  0.7042741217273575  0.22285615974812759  0.32581767438021575  1.0000
  H   H33       1.0  0.4127182212242504  0.40228357016121286  0.5567462732313471  1.0000
  H   H34       1.0  0.5872817786586046  0.9022835701414337  0.9432537263269459  1.0000
  H   H35       1.0  0.5872817787247203  0.5977164297992287  0.44325372628377874  1.0000
  H   H36       1.0  0.41271822129036606  0.0977164298190079  0.05674627318818  1.0000
  H   H37       1.0  0.5691672997200101  0.4118138099609384  0.5159549557647621  1.0000
  H   H38       1.0  0.43083270016284486  0.9118138099411592  0.9840450437935307  1.0000
  H   H39       1.0  0.43083270022896053  0.5881861899995031  0.4840450437503636  1.0000
  H   H40       1.0  0.5691672987412117  0.08818619001928234  0.015954955724466074  1.0000
  H   H41       1.0  0.6170210052341076  0.41555333022666036  0.693268620283604  1.0000
  H   H42       1.0  0.3829789946487475  0.9155533302068811  0.806731379274689  1.0000
  H   H43       1.0  0.3829789947148631  0.5844466697337811  0.3067313792315218  1.0000
  H   H44       1.0  0.6170210053002233  0.08444666975356041  0.19326862024043692  1.0000
  C   C1        1.0  0.24702427843911123  0.28643287451004174  0.141135449654174  1.0000
  C   C2        1.0  0.7529757205310611  0.7864328744902624  0.35886454982065574  1.0000
  C   C3        1.0  0.7529757204649453  0.7135671254503998  0.8588645498638227  1.0000
  C   C4        1.0  0.2470242783729956  0.21356712547017903  0.6411354496973412  1.0000
  C   C5        1.0  0.16598189171378777  0.34306481202288003  0.013443533211890553  1.0000
  C   C6        1.0  0.8340181078693952  0.8430648120031008  0.48655646730009044  1.0000
  C   C7        1.0  0.8340181088481936  0.6569351879375614  0.9865564673403866  1.0000
  C   C8        1.0  0.16598189103466138  0.15693518795734074  0.5134435322179063  1.0000
  C   C9        1.0  0.17866438540925628  0.43652311044254133  0.020905064058421886  1.0000
  C   C10       1.0  0.8213356135609161  0.9365231104227622  0.4790949354164078  1.0000
  C   C11       1.0  0.8213356145397144  0.5634768895179003  0.9790949354567039  1.0000
  C   C12       1.0  0.17866438534314058  0.06347688953767947  0.520905064101589  1.0000
  C   C13       1.0  0.09916283433013558  0.4853559172507907  0.8979187797959575  1.0000
  C   C14       1.0  0.9008371661657302  0.9853559172310115  0.6020812207994868  1.0000
  C   C15       1.0  0.9008371662318458  0.5146440827096509  0.10208122075631963  1.0000
  C   C16       1.0  0.09916283439625125  0.014644082729430071  0.3979187797527904  1.0000
  C   C17       1.0  0.009785853321324773  0.4442139501414869  0.7681949423262235  1.0000
  C   C18       1.0  0.990214146129627  0.9442139501217076  0.7318050582720917  1.0000
  C   C19       1.0  0.9902141461957424  0.5557860498189547  0.23180505822892458  1.0000
  C   C20       1.0  0.009785853387440535  0.05578604983873392  0.26819494228305646  1.0000
  C   C21       1.0  4.57853510892581e-05  0.3507417812059232  0.7624001387490719  1.0000
  C   C22       1.0  0.9999542145317657  0.850741781186144  0.737599860809221  1.0000
  C   C23       1.0  0.9999542145978813  0.6492582187545184  0.23759986076605397  1.0000
  C   C24       1.0  4.5785417204997474e-05  0.14925821877429757  0.26240013870590473  1.0000
  C   C25       1.0  0.07706698076990338  0.30052367687539105  0.8844130997876184  1.0000
  C   C26       1.0  0.9229330191129516  0.8005236768556119  0.6155868997706744  1.0000
  C   C27       1.0  0.9229330181341532  0.6994763230850505  0.11558689973037832  1.0000
  C   C28       1.0  0.07706698083601916  0.19947632310482968  0.38441309974445137  1.0000
  C   C29       1.0  0.4941432782222426  0.1462209576661867  0.4865574011176091  1.0000
  C   C30       1.0  0.5058567224058544  0.6462209576464075  0.013442599391500939  1.0000
  C   C31       1.0  0.5058567223397389  0.8537790422942548  0.5134425994346681  1.0000
  C   C32       1.0  0.4941432781561268  0.35377904231403406  0.9865574011607761  1.0000
  C   C33       1.0  0.6471671863543478  0.14727873527022056  0.7226476524331593  1.0000
  C   C34       1.0  0.35283281352850726  0.6472787352504413  0.7773523471251336  1.0000
  C   C35       1.0  0.35283281359462293  0.852721264690221  0.2773523470819665  1.0000
  C   C36       1.0  0.6471671864204634  0.35272126471000026  0.2226476523899922  1.0000
  C   C37       1.0  0.6442857007194757  0.24063706862427697  0.7286119610916001  1.0000
  C   C38       1.0  0.3557142991633793  0.740637069276812  0.7713880384666928  1.0000
  C   C39       1.0  0.355714299229495  0.7593629313361646  0.27138803842352566  1.0000
  C   C40       1.0  0.6442857007855914  0.2593629313559438  0.22861196104843307  1.0000
  C   C41       1.0  0.5573578514506686  0.2843789006007281  0.6008707947706946  1.0000
  C   C42       1.0  0.44264214843218624  0.784378900580949  0.8991292047875983  1.0000
  C   C43       1.0  0.44264214849830197  0.7156210993597134  0.3991292047444312  1.0000
  C   C44       1.0  0.5573578515167844  0.21562109937949267  0.10087079472752748  1.0000
  C   C45       1.0  0.5394097140828784  0.3845227137307668  0.5918728145407254  1.0000
  C   C46       1.0  0.46059028641298727  0.8845227137109876  0.908127186054719  1.0000
  C   C47       1.0  0.46059028543418906  0.6154772862296748  0.40812718601442277  1.0000
  C   C48       1.0  0.5394097141489941  0.11547728624945401  0.09187281449755821  1.0000
  N   N1        1.0  0.10918459925325377  0.5832858283676278  0.9058824393976725  1.0000
  N   N2        1.0  0.8908154006296013  0.08328582838740707  0.5941175601606203  1.0000
  N   N3        1.0  0.890815400695717  0.4167141715928137  0.09411756011745326  1.0000
  N   N4        1.0  0.10918459827445536  0.9167141715730345  0.4058824393573764  1.0000
  N   N5        1.0  0.48399178808409415  0.23770239259051856  0.48125894920812035  1.0000
  N   N6        1.0  0.5160082108860781  0.7377023925707393  0.018741050266709247  1.0000
  N   N7        1.0  0.5160082118648762  0.7622976073699229  0.5187410503070052  1.0000
  N   N8        1.0  0.48399178801797854  0.2622976073897022  0.9812589492512874  1.0000
  N   N9        1.0  0.421373555824599  0.09968567733817806  0.36863121465145465  1.0000
  N   N10       1.0  0.5786264431455734  0.5996856773183988  0.13136878482337505  1.0000
  N   N11       1.0  0.5786264430794577  0.9003143226222635  0.6313687848665421  1.0000
  N   N12       1.0  0.4213735568033973  0.40031432264204275  0.8686312146917506  1.0000
  N   N13       1.0  0.5755930042235612  0.09929567320309761  0.6077036264050136  1.0000
  N   N14       1.0  0.4244069956592936  0.5992956731833183  0.892296373153279  1.0000
  N   N15       1.0  0.4244069963384201  0.900704326757344  0.3922963741472634  1.0000
  N   N16       1.0  0.575593004289677  0.4007043267771232  0.1077036263618466  1.0000
  O   O1        1.0  0.3263745313719283  0.33212212127174734  0.25768660666514615  1.0000
  O   O2        1.0  0.6736254686431581  0.832122121251968  0.24231339280681258  1.0000
  O   O3        1.0  0.6736254685770423  0.6678778786886942  0.7423133928499795  1.0000
  O   O4        1.0  0.32637453130581257  0.16787787870847343  0.7576866067083132  1.0000
  O   O5        1.0  0.23795151214843657  0.2031380357666595  0.1324148508130857  1.0000
  O   O6        1.0  0.7620484884796606  0.7031380364191945  0.3675851496960243  1.0000
  O   O7        1.0  0.7620484884135449  0.7968619641937821  0.8675851497391914  1.0000
  O   O8        1.0  0.23795151208232085  0.2968619642135613  0.6324148508562528  1.0000
  O   O9        1.0  0.1909312247222209  0.6181908797803588  0.022319174720649784  1.0000
  O   O10       1.0  0.8090687752928655  0.11819087980013807  0.47768082475130885  1.0000
  O   O11       1.0  0.8090687752267498  0.38180912018008273  0.977680824794476  1.0000
  O   O12       1.0  0.19093122465610515  0.8818091201603036  0.5223191747638168  1.0000
  O   O13       1.0  0.03462510506345869  0.6269190970511523  0.7966728200250518  1.0000
  O   O14       1.0  0.9653748948193962  0.1269190970709316  0.703327179533241  1.0000
  O   O15       1.0  0.965374894885512  0.3730809029092892  0.20332717949007392  1.0000
  O   O16       1.0  0.03462510574258516  0.87308090288951  0.29667282101903614  1.0000
  Cl  Cl1       1.0  0.7519289194109078  0.08622450872501479  0.876020015995857  1.0000
  Cl  Cl2       1.0  0.24807108047194706  0.5862245087052356  0.6239799835624358  1.0000
  Cl  Cl3       1.0  0.24807108053806276  0.9137754912354268  0.12397998351926871  1.0000
  Cl  Cl4       1.0  0.7519289194770237  0.413775491255206  0.37602001595268997  1.0000
