data_image0
_chemical_formula_structural       H112C104N24O16Cl8
_chemical_formula_sum              "H112 C104 N24 O16 Cl8"
_cell_length_a       26.532476247084272
_cell_length_b       7.119771019631687
_cell_length_c       14.238141836770618
_cell_angle_alpha    90.0
_cell_angle_beta     99.48015686247909
_cell_angle_gamma    90.0

_space_group_name_H-M_alt    "P 1"
_space_group_IT_number       1

loop_
  _space_group_symop_operation_xyz
  'x, y, z'

loop_
  _atom_site_type_symbol
  _atom_site_label
  _atom_site_symmetry_multiplicity
  _atom_site_fract_x
  _atom_site_fract_y
  _atom_site_fract_z
  _atom_site_occupancy
  H   H1        1.0  0.4601114047780618  0.32890764513956816  0.5291624626729674  1.0000
  H   H2        1.0  0.539888594978549  0.32890764513956816  0.9708375368899278  1.0000
  H   H3        1.0  0.9601114046812824  0.8289076451654337  0.5291624629461674  1.0000
  H   H4        1.0  0.03988859513675  0.8289076451654337  0.9708375373287856  1.0000
  H   H5        1.0  0.5398885952465902  0.671092354912163  0.47083753721967025  1.0000
  H   H6        1.0  0.4601114046689565  0.671092354912163  0.029162462999848583  1.0000
  H   H7        1.0  0.03988859496622301  0.1710923548862974  0.47083753694360897  1.0000
  H   H8        1.0  0.9601114048879018  0.1710923548862974  0.029162462563851868  1.0000
  H   H9        1.0  0.6233903290807155  0.09853040611357892  0.5690118124371477  1.0000
  H   H10       1.0  0.3766096710530417  0.09853040611357892  0.9309881871286088  1.0000
  H   H11       1.0  0.12339032886177008  0.5985304061394445  0.5690118128731444  1.0000
  H   H12       1.0  0.8766096709562624  0.5985304061394445  0.9309881874018087  1.0000
  H   H13       1.0  0.37660967094393644  0.9014695939381522  0.43098818745548995  1.0000
  H   H14       1.0  0.6233903289716103  0.9014695939381522  0.06901181276402889  1.0000
  H   H15       1.0  0.8766096712243036  0.40146959391228665  0.4309881877315511  1.0000
  H   H16       1.0  0.12339032906838952  0.40146959391228665  0.06901181249082888  1.0000
  H   H17       1.0  0.4559966529102792  0.20000766542540657  0.2671054711640512  1.0000
  H   H18       1.0  0.5440033469438458  0.20000766542540657  0.23289452834340962  1.0000
  H   H19       1.0  0.9559966528134999  0.7000076654512721  0.2671054714372512  1.0000
  H   H20       1.0  0.04400334710204678  0.7000076654512721  0.2328945287822676  1.0000
  H   H21       1.0  0.5440033471143728  0.7999923346263246  0.7328945287285864  1.0000
  H   H22       1.0  0.4559966530808062  0.7999923346263246  0.7671054715492279  1.0000
  H   H23       1.0  0.04400334721115206  0.29999233460045904  0.7328945284553863  1.0000
  H   H24       1.0  0.9559966529226052  0.29999233460045904  0.7671054711103701  1.0000
  H   H25       1.0  0.42673363342923926  0.2838049502474771  0.36497670214932443  1.0000
  H   H26       1.0  0.5732663668634538  0.2838049502474771  0.1350232980730556  1.0000
  H   H27       1.0  0.9267336332710382  0.7838049488688031  0.3649767017104665  1.0000
  H   H28       1.0  0.07326636658308672  0.7838049488688031  0.13502329779699437  1.0000
  H   H29       1.0  0.5732663665954126  0.716195049804254  0.6350232977433132  1.0000
  H   H30       1.0  0.4267336331611981  0.716195049804254  0.864976701819582  1.0000
  H   H31       1.0  0.07326636675361373  0.21619504977838847  0.6350232981821712  1.0000
  H   H32       1.0  0.9267336334415652  0.21619504977838847  0.8649767020956434  1.0000
  H   H33       1.0  0.39463876890030913  0.4990961928693915  0.7012156518082014  1.0000
  H   H34       1.0  0.6053612312948699  0.4990961928693915  0.7987843484696131  1.0000
  H   H35       1.0  0.894638768742108  0.999096192895257  0.7012156513693435  1.0000
  H   H36       1.0  0.1053612310145027  0.999096192895257  0.7987843481935517  1.0000
  H   H37       1.0  0.6053612311243428  0.5009038071823396  0.29878434808443616  1.0000
  H   H38       1.0  0.3946387687297821  0.5009038071823396  0.20121565142302467  1.0000
  H   H39       1.0  0.10536123128254385  0.0009038071564740975  0.29878434852329405  1.0000
  H   H40       1.0  0.8946387690101492  0.0009038071564740975  0.20121565169908592  1.0000
  H   H41       1.0  0.6140410483381142  0.9334826937094131  0.3170530487753126  1.0000
  H   H42       1.0  0.3859589515160106  0.9334826937094131  0.18294695073214828  1.0000
  H   H43       1.0  0.1140410484963153  0.43348269368354736  0.31705304921417055  1.0000
  H   H44       1.0  0.8859589514192314  0.43348269368354736  0.1829469510053483  1.0000
  H   H45       1.0  0.3859589516865377  0.06651730634231819  0.6829469511173252  1.0000
  H   H46       1.0  0.6140410485086412  0.06651730634231819  0.8170530491604893  1.0000
  H   H47       1.0  0.8859589515897582  0.5665173063681839  0.6829469513905251  1.0000
  H   H48       1.0  0.11404104822827414  0.5665173063681839  0.8170530488844281  1.0000
  H   H49       1.0  0.6532932673518703  0.9318101932923116  0.43137123896339696  1.0000
  H   H50       1.0  0.3467067325636763  0.9318101932923116  0.0686287612561219  1.0000
  H   H51       1.0  0.1532932674486496  0.43181019326644604  0.43137123869019695  1.0000
  H   H52       1.0  0.846706732466897  0.43181019326644604  0.06862876152932189  1.0000
  H   H53       1.0  0.3467067327342033  0.06818980675941953  0.5686287616412987  1.0000
  H   H54       1.0  0.6532932674609756  0.06818980675941953  0.9313712386365158  1.0000
  H   H55       1.0  0.8467067325760023  0.5681898067852851  0.5686287612024408  1.0000
  H   H56       1.0  0.1532932675577549  0.5681898067852851  0.9313712383633157  1.0000
  H   H57       1.0  0.6515362605803142  0.1327591684330456  0.35701019116883503  1.0000
  H   H58       1.0  0.34846373933523245  0.1327591684330456  0.14298980905068373  1.0000
  H   H59       1.0  0.15153626067709347  0.6327591684589112  0.35701019089563507  1.0000
  H   H60       1.0  0.8484637391770314  0.6327591684589112  0.1429898086118258  1.0000
  H   H61       1.0  0.3484637394443378  0.8672408316186855  0.6429898087238025  1.0000
  H   H62       1.0  0.6515362606894195  0.8672408316186855  0.8570101908419538  1.0000
  H   H63       1.0  0.8484637393475583  0.36724083159281995  0.6429898089970025  1.0000
  H   H64       1.0  0.15153626047047403  0.36724083159281995  0.8570101912779505  1.0000
  H   H65       1.0  0.3251031324576757  0.5887948093331885  0.7905025298664017  1.0000
  H   H66       1.0  0.6748968673603568  0.5887948093331885  0.7094974704085515  1.0000
  H   H67       1.0  0.825103132676621  0.08879480930732297  0.7905025294304049  1.0000
  H   H68       1.0  0.17489686745713606  0.08879480930732297  0.7094974701353515  1.0000
  H   H69       1.0  0.6748968676283978  0.4112051907185426  0.20949747073829386  1.0000
  H   H70       1.0  0.3251031326642952  0.4112051907185426  0.29050252948408617  1.0000
  H   H71       1.0  0.1748968673480308  0.9112051907444082  0.2094974704622326  1.0000
  H   H72       1.0  0.8251031325675159  0.9112051907444082  0.2905025297572862  1.0000
  H   H73       1.0  0.5347274918405072  0.40031805547412713  0.66320767081165  1.0000
  H   H74       1.0  0.46527250797752534  0.40031805547412713  0.8367923294633032  1.0000
  H   H75       1.0  0.034727491937286484  0.9003180554999927  0.66320767053845  1.0000
  H   H76       1.0  0.9652725078193244  0.9003180554999927  0.8367923290244452  1.0000
  H   H77       1.0  0.46527250780699836  0.599681944577604  0.33679232907812634  1.0000
  H   H78       1.0  0.5347274920471266  0.599681944577604  0.16320767042933446  1.0000
  H   H79       1.0  0.9652725080873654  0.09968194455173844  0.3367923293541876  1.0000
  H   H80       1.0  0.03472749220532764  0.09968194455173844  0.1632076708681924  1.0000
  H   H81       1.0  0.5845685220525648  0.2330220038573411  0.6962807468065546  1.0000
  H   H82       1.0  0.4154314777654677  0.2330220038573411  0.8037192534683986  1.0000
  H   H83       1.0  0.08456852214934414  0.7330220038832066  0.6962807465333547  1.0000
  H   H84       1.0  0.9154314776686884  0.7330220038832066  0.8037192537415986  1.0000
  H   H85       1.0  0.4154314775949407  0.7669779961943901  0.30371925308322184  1.0000
  H   H86       1.0  0.5845685222591843  0.7669779961943901  0.19628074642423907  1.0000
  H   H87       1.0  0.9154314778753078  0.26697799616852447  0.303719253359283  1.0000
  H   H88       1.0  0.08456852204023883  0.26697799616852447  0.1962807468602358  1.0000
  H   H89       1.0  0.5192382211424583  0.163037746129657  0.682752480174877  1.0000
  H   H90       1.0  0.4807617790527206  0.163037746129657  0.8172475201029374  1.0000
  H   H91       1.0  0.019238220862091218  0.6630377461555226  0.6827524798988157  1.0000
  H   H92       1.0  0.9807617788945194  0.6630377461555226  0.8172475196640795  1.0000
  H   H93       1.0  0.48076177888219357  0.8369622539220741  0.3172475197177606  1.0000
  H   H94       1.0  0.5192382209719313  0.8369622539220741  0.18275247978970022  1.0000
  H   H95       1.0  0.9807617791625608  0.3369622538962086  0.3172475199938219  1.0000
  H   H96       1.0  0.019238221130132373  0.3369622538962086  0.18275248022855817  1.0000
  H   H97       1.0  0.28581304288833964  0.4416652208799085  0.44374313105283586  1.0000
  H   H98       1.0  0.7141869569657853  0.4416652208799085  0.05625686845462499  1.0000
  H   H99       1.0  0.7858130431687067  0.9416652209057741  0.4437431313288971  1.0000
  H   H100      1.0  0.21418695712398636  0.9416652209057741  0.05625686889348295  1.0000
  H   H101      1.0  0.7141869571363123  0.5583347791718226  0.5562568688398017  1.0000
  H   H102      1.0  0.2858130430588666  0.5583347791718226  0.9437431314380126  1.0000
  H   H103      1.0  0.21418695685594522  0.05833477914595707  0.5562568685637406  1.0000
  H   H104      1.0  0.7858130429006656  0.05833477914595707  0.9437431309991546  1.0000
  H   H105      1.0  0.2154792196080803  0.5332697104346498  0.5318828248065218  1.0000
  H   H106      1.0  0.7845207805256768  0.5332697104346498  0.9681171747592345  1.0000
  H   H107      1.0  0.715479219511301  0.033269710408784146  0.5318828250797218  1.0000
  H   H108      1.0  0.2845207803067315  0.033269710408784146  0.9681171751952312  1.0000
  H   H109      1.0  0.7845207804165716  0.4667302896170814  0.4681171750861157  1.0000
  H   H110      1.0  0.21547921949897503  0.4667302896170814  0.03188282513340305  1.0000
  H   H111      1.0  0.2845207805133509  0.9667302896429469  0.46811717481291576  1.0000
  H   H112      1.0  0.7154792197179204  0.9667302896429469  0.03188282469740633  1.0000
  C   C1        1.0  0.5019603183028792  0.20868249497114594  0.39717568142431586  1.0000
  C   C2        1.0  0.4980396819898138  0.20868249497114594  0.10282431879806415  1.0000
  C   C3        1.0  0.0019603180225121414  0.7086824949970115  0.39717568114825463  1.0000
  C   C4        1.0  0.9980396818316128  0.7086824949970115  0.10282431835920619  1.0000
  C   C5        1.0  0.49803968172177265  0.7913175050805852  0.6028243184683217  1.0000
  C   C6        1.0  0.5019603180348381  0.7913175050805852  0.8971756810945735  1.0000
  C   C7        1.0  0.9980396820021397  0.29131750505471965  0.6028243187443829  1.0000
  C   C8        1.0  0.0019603181930391528  0.29131750505471965  0.8971756815334315  1.0000
  C   C9        1.0  0.5467002393978194  0.21030394739822095  0.5519571023087503  1.0000
  C   C10       1.0  0.4532997607973595  0.21030394739822095  0.948042897969064  1.0000
  C   C11       1.0  0.04670023949459874  0.7103039474240865  0.5519571020355505  1.0000
  C   C12       1.0  0.9532997607005802  0.7103039474240865  0.948042898242264  1.0000
  C   C13       1.0  0.4532997606268326  0.7896960526535102  0.44804289758388727  1.0000
  C   C14       1.0  0.5467002392272924  0.7896960526535102  0.05195710192357362  1.0000
  C   C15       1.0  0.9532997605300533  0.28969605262764464  0.44804289785708723  1.0000
  C   C16       1.0  0.04670023938549343  0.28969605262764464  0.05195710236243157  1.0000
  C   C17       1.0  0.5887676383559022  0.1318948232198314  0.5195148794700777  1.0000
  C   C18       1.0  0.4112323614007086  0.1318948232198314  0.9804851200928175  1.0000
  C   C19       1.0  0.08876763851410319  0.631894823245697  0.5195148799089356  1.0000
  C   C20       1.0  0.9112323616810758  0.631894823245697  0.9804851203688788  1.0000
  C   C21       1.0  0.4112323616687498  0.8681051768318997  0.48048512042256003  1.0000
  C   C22       1.0  0.5887676386239433  0.8681051768318997  0.019514879799820094  1.0000
  C   C23       1.0  0.9112323615719705  0.36810517680603416  0.48048512069576  1.0000
  C   C24       1.0  0.08876763834357619  0.36810517680603416  0.019514879523758855  1.0000
  C   C25       1.0  0.34450206396471805  0.4632709395997723  0.5672773496999445  1.0000
  C   C26       1.0  0.6554979362304608  0.4632709395997723  0.9327226505778698  1.0000
  C   C27       1.0  0.8445020638065169  0.9632709396256379  0.5672773492610866  1.0000
  C   C28       1.0  0.15549793595009376  0.9632709396256379  0.9327226503018085  1.0000
  C   C29       1.0  0.6554979361213555  0.5367290604519589  0.43272265090475104  1.0000
  C   C30       1.0  0.344502063794191  0.5367290604519589  0.06727734931476777  1.0000
  C   C31       1.0  0.15549793621813493  0.036729060426093287  0.432722650631551  1.0000
  C   C32       1.0  0.8445020636974118  0.036729060426093287  0.06727734958796777  1.0000
  C   C33       1.0  0.3855637472714658  0.400677005220257  0.5145759379809676  1.0000
  C   C34       1.0  0.6144362528622914  0.400677005220257  0.9854240615847889  1.0000
  C   C35       1.0  0.8855637471746866  0.9006770052461227  0.5145759382541676  1.0000
  C   C36       1.0  0.11443625264334598  0.9006770052461227  0.9854240620207856  1.0000
  C   C37       1.0  0.6144362527531861  0.599322994831474  0.4854240619116701  1.0000
  C   C38       1.0  0.3855637471623605  0.599322994831474  0.014575938307848703  1.0000
  C   C39       1.0  0.11443625284996543  0.09932299480560852  0.4854240616384701  1.0000
  C   C40       1.0  0.8855637473813058  0.09932299480560852  0.01457593787185199  1.0000
  C   C41       1.0  0.5848324982231403  0.09773785955773592  0.4217308304420554  1.0000
  C   C42       1.0  0.41516750169240635  0.09773785955773592  0.07826916977746338  1.0000
  C   C43       1.0  0.08483249831991964  0.5977378595836015  0.4217308301688554  1.0000
  C   C44       1.0  0.9151675015956269  0.5977378595836015  0.07826917005066339  1.0000
  C   C45       1.0  0.41516750180151163  0.9022621404939952  0.5782691694505822  1.0000
  C   C46       1.0  0.5848324983322456  0.9022621404939952  0.9217308301151742  1.0000
  C   C47       1.0  0.9151675017047323  0.40226214046812964  0.5782691697237822  1.0000
  C   C48       1.0  0.08483249849044663  0.40226214046812964  0.9217308305540322  1.0000
  C   C49       1.0  0.35530472056297707  0.5057921736626707  0.6646930240764545  1.0000
  C   C50       1.0  0.6446952792550553  0.5057921736626707  0.8353069761984987  1.0000
  C   C51       1.0  0.8553047208433442  0.005792173636805154  0.6646930243525156  1.0000
  C   C52       1.0  0.14469527935183474  0.005792173636805154  0.8353069759252987  1.0000
  C   C53       1.0  0.6446952794616748  0.4942078263890604  0.33530697581618313  1.0000
  C   C54       1.0  0.3553047207695965  0.4942078263890604  0.16469302369413893  1.0000
  C   C55       1.0  0.14469527924272946  0.9942078264149259  0.33530697625217987  1.0000
  C   C56       1.0  0.8553047206728172  0.9942078264149259  0.16469302396733895  1.0000
  C   C57       1.0  0.628372445929538  0.018609833045846222  0.37980709382053573  1.0000
  C   C58       1.0  0.37162755430173344  0.018609833045846222  0.12019290568978638  1.0000
  C   C59       1.0  0.12837244571059253  0.5186098330717118  0.3798070942565325  1.0000
  C   C60       1.0  0.871627554204954  0.5186098330717118  0.12019290596298637  1.0000
  C   C61       1.0  0.37162755409511394  0.981390167005885  0.620192906072102  1.0000
  C   C62       1.0  0.6283724457229185  0.981390167005885  0.8798070942028512  1.0000
  C   C63       1.0  0.8716275543140595  0.4813901669800193  0.6201929056361053  1.0000
  C   C64       1.0  0.12837244581969784  0.4813901669800193  0.8798070939296513  1.0000
  C   C65       1.0  0.31649499611142884  0.5565673599717806  0.7146727587225625  1.0000
  C   C66       1.0  0.6835050040223284  0.5565673599717806  0.7853272408431937  1.0000
  C   C67       1.0  0.8164949960146496  0.05656736135045457  0.7146727589957627  1.0000
  C   C68       1.0  0.1835050041805294  0.05656736135045457  0.7853272412820517  1.0000
  C   C69       1.0  0.6835050039132231  0.443432638675411  0.2853272411700751  1.0000
  C   C70       1.0  0.31649499600232356  0.443432638675411  0.21467275904944377  1.0000
  C   C71       1.0  0.1835050040100024  0.9434326387012766  0.28532724089687506  1.0000
  C   C72       1.0  0.8164949959055442  0.9434326387012766  0.21467275932264376  1.0000
  C   C73       1.0  0.26634663542135684  0.5633502129409057  0.6656966882548315  1.0000
  C   C74       1.0  0.733653364335254  0.5633502129409057  0.8343033113080638  1.0000
  C   C75       1.0  0.7663466353245775  0.06335021291504017  0.6656966885280314  1.0000
  C   C76       1.0  0.23365336449345497  0.06335021291504017  0.8343033117469217  1.0000
  C   C77       1.0  0.7336533646032951  0.43664978711082536  0.3343033116378062  1.0000
  C   C78       1.0  0.26634663531225156  0.43664978711082536  0.16569668858171263  1.0000
  C   C79       1.0  0.23365336470007442  0.936649787136691  0.33430331136460617  1.0000
  C   C80       1.0  0.7663466355926187  0.936649787136691  0.16569668885777386  1.0000
  C   C81       1.0  0.5465956302171  0.25437723699345755  0.6544458094488925  1.0000
  C   C82       1.0  0.4534043696009325  0.25437723699345755  0.8455541908260605  1.0000
  C   C83       1.0  0.04659563031387931  0.7543772370193231  0.6544458091756926  1.0000
  C   C84       1.0  0.9534043698198779  0.7543772370193231  0.8455541903900637  1.0000
  C   C85       1.0  0.453404369807552  0.7456227630582736  0.345554190443745  1.0000
  C   C86       1.0  0.5465956304851411  0.7456227630582736  0.15444580977863503  1.0000
  C   C87       1.0  0.9534043697107727  0.24562276303240807  0.345554190716945  1.0000
  C   C88       1.0  0.046595630204774016  0.24562276303240807  0.15444580950257378  1.0000
  C   C89       1.0  0.2940538858825048  0.47464405255196224  0.5194116882917708  1.0000
  C   C90       1.0  0.7059461138741059  0.47464405255196224  0.9805883112711246  1.0000
  C   C91       1.0  0.794053886162872  0.9746440525778278  0.519411688567832  1.0000
  C   C92       1.0  0.20594611403230698  0.9746440525778278  0.9805883117099824  1.0000
  C   C93       1.0  0.7059461141421471  0.5253559474997689  0.4805883116008668  1.0000
  C   C94       1.0  0.294053886150546  0.5253559474997689  0.019411688621513205  1.0000
  C   C95       1.0  0.20594611386178  0.025355947473903302  0.4805883113248056  1.0000
  C   C96       1.0  0.7940538860537666  0.025355947473903302  0.01941168889471321  1.0000
  C   C97       1.0  0.2548023735645416  0.5248967361022415  0.5683040164191036  1.0000
  C   C98       1.0  0.7451976262534908  0.5248967361022415  0.9316959838558496  1.0000
  C   C99       1.0  0.7548023734063406  0.024896736076375926  0.5683040159802456  1.0000
  C   C100      1.0  0.2451976263502702  0.024896736076375926  0.9316959835826496  1.0000
  C   C101      1.0  0.7451976264601103  0.47510326394948965  0.43169598347353405  1.0000
  C   C102      1.0  0.25480237339401457  0.47510326394948965  0.06830401603392683  1.0000
  C   C103      1.0  0.24519762661831135  0.9751032639753552  0.431695983912392  1.0000
  C   C104      1.0  0.7548023736743816  0.9751032639753552  0.06830401630998809  1.0000
  N   N1        1.0  0.5420406561216788  0.13694944083334304  0.3608142983063239  1.0000
  N   N2        1.0  0.45795934373244607  0.13694944083334304  0.13918570120113696  1.0000
  N   N3        1.0  0.04204065627987985  0.6369494408592086  0.36081429874518184  1.0000
  N   N4        1.0  0.9579593436356668  0.6369494408592086  0.13918570147433695  1.0000
  N   N5        1.0  0.4579593439029731  0.8630505592183881  0.6391857015863137  1.0000
  N   N6        1.0  0.5420406562922059  0.8630505592183881  0.8608142986915006  1.0000
  N   N7        1.0  0.957959343744772  0.3630505591925225  0.6391857011474558  1.0000
  N   N8        1.0  0.04204065638898514  0.3630505591925225  0.8608142984183006  1.0000
  N   N9        1.0  0.5034705644410001  0.24762281892756755  0.4910529896569588  1.0000
  N   N10       1.0  0.49652943585169296  0.24762281892756755  0.008947010565421245  1.0000
  N   N11       1.0  0.0034705641606330075  0.7476228189534332  0.49105298938089753  1.0000
  N   N12       1.0  0.9965294356934918  0.7476228189534332  0.00894701012656329  1.0000
  N   N13       1.0  0.49652943558365176  0.7523771811241635  0.5089470102356788  1.0000
  N   N14       1.0  0.503470564172959  0.7523771811241635  0.9910529893272164  1.0000
  N   N15       1.0  0.996529435864019  0.252377181098298  0.50894701051174  1.0000
  N   N16       1.0  0.003470564331160015  0.252377181098298  0.9910529897660744  1.0000
  N   N17       1.0  0.4584897511199409  0.24290153928145064  0.33714414758612415  1.0000
  N   N18       1.0  0.5415102491727523  0.24290153928145064  0.1628558526362559  1.0000
  N   N19       1.0  0.9584897509617397  0.7429015393073163  0.3371441471472662  1.0000
  N   N20       1.0  0.04151024889238514  0.7429015393073163  0.16285585236019465  1.0000
  N   N21       1.0  0.5415102489047111  0.7570984607702804  0.6628558523065134  1.0000
  N   N22       1.0  0.45848975085189964  0.7570984607702804  0.8371441472563818  1.0000
  N   N23       1.0  0.04151024906291214  0.2570984607444149  0.6628558527453714  1.0000
  N   N24       1.0  0.9584897511322669  0.2570984607444149  0.8371441475324429  1.0000
  O   O1        1.0  0.4309961751043768  0.3872614951235656  0.5673780603539882  1.0000
  O   O2        1.0  0.5690038247136556  0.3872614951235656  0.9326219399209649  1.0000
  O   O3        1.0  0.9309961753847439  0.8872614951494312  0.5673780606300494  1.0000
  O   O4        1.0  0.06900382481043496  0.8872614951494312  0.932621939647765  1.0000
  O   O5        1.0  0.569003824920275  0.6127385049281655  0.4326219395386494  1.0000
  O   O6        1.0  0.43099617531099627  0.6127385049281655  0.06737805997167266  1.0000
  O   O7        1.0  0.06900382470132967  0.11273850490229996  0.43262193997464615  1.0000
  O   O8        1.0  0.9309961752142171  0.11273850490229996  0.06737806024487265  1.0000
  O   O9        1.0  0.3761763773086508  0.3609013046788863  0.42814805985015886  1.0000
  O   O10       1.0  0.6238236226068959  0.3609013046788863  0.07185194036935998  1.0000
  O   O11       1.0  0.8761763772118715  0.8609013047047518  0.4281480601233588  1.0000
  O   O12       1.0  0.12382362270367524  0.8609013047047518  0.07185194009615999  1.0000
  O   O13       1.0  0.6238236227160012  0.6390986939683053  0.5718519400424789  1.0000
  O   O14       1.0  0.376176377417756  0.6390986939683053  0.9281480595232776  1.0000
  O   O15       1.0  0.12382362287420223  0.1390986953469793  0.5718519404813367  1.0000
  O   O16       1.0  0.8761763773209766  0.1390986953469793  0.9281480597964776  1.0000
  Cl  Cl1       1.0  0.2171326512217967  0.6165947834410973  0.7274618036797995  1.0000
  Cl  Cl2       1.0  0.7828673489733823  0.6165947834410973  0.7725381965980148  1.0000
  Cl  Cl3       1.0  0.7171326510635957  0.11659478341523173  0.7274618032409416  1.0000
  Cl  Cl4       1.0  0.2828673486930151  0.11659478341523173  0.7725381963219536  1.0000
  Cl  Cl5       1.0  0.7828673488642769  0.3834052166106338  0.2725381969248961  1.0000
  Cl  Cl6       1.0  0.21713265105126975  0.3834052166106338  0.22746180329462273  1.0000
  Cl  Cl7       1.0  0.28286734896105625  0.8834052166364994  0.2725381966516961  1.0000
  Cl  Cl8       1.0  0.717132651331637  0.8834052166364994  0.22746180357068396  1.0000
