data_image0
_chemical_formula_structural       H28C26N8O8
_chemical_formula_sum              "H28 C26 N8 O8"
_cell_length_a       6.790762572351743
_cell_length_b       7.173561997625637
_cell_length_c       13.58103688982105
_cell_angle_alpha    83.49820914974163
_cell_angle_beta     80.49566499011195
_cell_angle_gamma    84.51845266741972

_space_group_name_H-M_alt    "P 1"
_space_group_IT_number       1

loop_
  _space_group_symop_operation_xyz
  'x, y, z'

loop_
  _atom_site_type_symbol
  _atom_site_label
  _atom_site_symmetry_multiplicity
  _atom_site_fract_x
  _atom_site_fract_y
  _atom_site_fract_z
  _atom_site_occupancy
  H   H1        1.0  0.9828220494585038  0.09190107485283766  0.4053216548254025  1.0000
  H   H2        1.0  0.01717795028247554  0.9080989260605571  0.5946783450056179  1.0000
  H   H3        1.0  0.8052861246053853  0.2459022564648022  0.3415063073790141  1.0000
  H   H4        1.0  0.19471387513559424  0.7540977444485925  0.6584936924520063  1.0000
  H   H5        1.0  0.3463029983355693  0.1498417849137747  0.7337476752615881  1.0000
  H   H6        1.0  0.6536970014054101  0.85015821599962  0.2662523245694322  1.0000
  H   H7        1.0  0.1979446989349271  0.4549019904521954  0.51017692704836  1.0000
  H   H8        1.0  0.8020553009283914  0.5450980090540531  0.48982307286943016  1.0000
  H   H9        1.0  0.121150154213381  0.3831465626252599  0.6410440217728084  1.0000
  H   H10       1.0  0.87884984564717  0.6168534369052759  0.3589559788799688  1.0000
  H   H11       1.0  0.09736517980439087  0.23504356354687078  0.5479190939761321  1.0000
  H   H12       1.0  0.9026348215488467  0.7649564359883292  0.45208090655344707  1.0000
  H   H13       1.0  0.7727485821887822  0.8336849901755531  0.7444709750559552  1.0000
  H   H14       1.0  0.22725141767453633  0.1663150093306954  0.25552902486183493  1.0000
  H   H15       1.0  0.6039896965751084  0.9871682283546074  0.8188331327880239  1.0000
  H   H16       1.0  0.3960103032882102  0.012831771151641145  0.18116686712976623  1.0000
  H   H17       1.0  0.8500788895968687  0.05102939488745845  0.7676260565128086  1.0000
  H   H18       1.0  0.14992111026644983  0.9489706046187901  0.23237394340498155  1.0000
  H   H19       1.0  0.48186484927081036  0.31313838700420205  0.41835739432970664  1.0000
  H   H20       1.0  0.518135150470169  0.6868616139091924  0.5816426055013137  1.0000
  H   H21       1.0  0.6845112955374558  0.6649327951124924  0.08752759925610243  1.0000
  H   H22       1.0  0.31548870432586285  0.335067204393756  0.9124724006616877  1.0000
  H   H23       1.0  0.5147190180908264  0.834072105044017  0.9516548330553558  1.0000
  H   H24       1.0  0.4852809817724921  0.1659278944622314  0.04834516686243426  1.0000
  H   H25       1.0  0.12301497108910572  0.4671870782308888  0.23764519630080885  1.0000
  H   H26       1.0  0.8769850287742128  0.5328129212753597  0.7623548036169814  1.0000
  H   H27       1.0  0.9546402115686251  0.6257930439925968  0.09936931229079995  1.0000
  H   H28       1.0  0.04535978829469342  0.37420695551365174  0.9006306876269903  1.0000
  C   C1        1.0  0.39493077081715006  0.2439850116192988  0.576263686562161  1.0000
  C   C2        1.0  0.6050692290461686  0.7560149878869497  0.4237363133556291  1.0000
  C   C3        1.0  0.7190799251824892  0.16144256608214613  0.4911077885182846  1.0000
  C   C4        1.0  0.2809200745584902  0.8385574348312486  0.5088922113127358  1.0000
  C   C5        1.0  0.6475686505527432  0.0721467493644268  0.661152861045854  1.0000
  C   C6        1.0  0.3524313491854689  0.9278532515732552  0.3388471395201532  1.0000
  C   C7        1.0  0.45131931769985023  0.15458801539360023  0.6641981741837338  1.0000
  C   C8        1.0  0.5486806821634682  0.8454119841126483  0.33580182573405637  1.0000
  C   C9        1.0  0.1915230270426143  0.33625807586479456  0.5686623311201073  1.0000
  C   C10       1.0  0.8084769728179366  0.6637419236657414  0.43133766953266983  1.0000
  C   C11       1.0  0.7217568857315957  0.9813063624585482  0.7536269010688703  1.0000
  C   C12       1.0  0.27824311400938373  0.018693638454846534  0.24637309876215016  1.0000
  C   C13       1.0  0.4155230703610024  0.5536117955639308  0.17154653815509383  1.0000
  C   C14       1.0  0.5844769294995487  0.446388203966605  0.8284534624976833  1.0000
  C   C15       1.0  0.5166137776977315  0.45007579161619465  0.2551666707418406  1.0000
  C   C16       1.0  0.48338622216558697  0.5499242078900538  0.7448333291759496  1.0000
  C   C17       1.0  0.5246757945909126  0.6576536687182605  0.09077157731497487  1.0000
  C   C18       1.0  0.4753242052724059  0.34234633078798815  0.9092284226028152  1.0000
  C   C19       1.0  0.22570836704417893  0.7394046603988395  0.018181697239306457  1.0000
  C   C20       1.0  0.7742916326940331  0.2605953405388425  0.9818183033267008  1.0000
  C   C21       1.0  0.4307058278594739  0.7527055928890707  0.014200326262569311  1.0000
  C   C22       1.0  0.5692941718815056  0.24729440802432398  0.985799673568451  1.0000
  C   C23       1.0  0.20922652262009753  0.5455012941290931  0.1744766631004078  1.0000
  C   C24       1.0  0.7907734787331402  0.4544987054061069  0.8255233374291714  1.0000
  C   C25       1.0  0.11357978867944477  0.6357510817975213  0.09739691106105611  1.0000
  C   C26       1.0  0.8864202110615347  0.3642489191158735  0.9026030887699642  1.0000
  N   N1        1.0  0.7791146366384119  0.07362873782223302  0.575604005449055  1.0000
  N   N2        1.0  0.22088536459525418  0.9263712630958257  0.42439599425876745  1.0000
  N   N3        1.0  0.5302555559230369  0.24612235622587994  0.4911040744933724  1.0000
  N   N4        1.0  0.46974444394028175  0.7538776432803685  0.5088959254244179  1.0000
  N   N5        1.0  0.8460687236184794  0.16809257120779728  0.4049477121632965  1.0000
  N   N6        1.0  0.15393127624483902  0.8319074282984513  0.5950522877544937  1.0000
  N   N7        1.0  0.12487813401333302  0.8378700990372634  0.9376659317912767  1.0000
  N   N8        1.0  0.8751218658499854  0.16212990046898518  0.062334068126513556  1.0000
  O   O1        1.0  0.395915357255559  0.3977529710512525  0.33475350091523115  1.0000
  O   O2        1.0  0.6040846426077595  0.602247028454996  0.665246499002559  1.0000
  O   O3        1.0  0.7046715918521407  0.42141248909525  0.2427227151952505  1.0000
  O   O4        1.0  0.29532840801117777  0.5785875104109987  0.7572772847225397  1.0000
  O   O5        1.0  0.22221410116198553  0.9430904709270855  0.8722987881482263  1.0000
  O   O6        1.0  0.7777858987013329  0.056909528579162955  0.12770121176956392  1.0000
  O   O7        1.0  0.9456012319671674  0.8128620957999592  0.9394316818882075  1.0000
  O   O8        1.0  0.05439876938607018  0.18713790373524078  0.060568318641371716  1.0000
