data_image0
_chemical_formula_structural       H12C34N4O2F8I4
_chemical_formula_sum              "H12 C34 N4 O2 F8 I4"
_cell_length_a       4.841286181324443
_cell_length_b       12.676296388929636
_cell_length_c       14.453404196742103
_cell_angle_alpha    107.22550133933817
_cell_angle_beta     92.63757888313165
_cell_angle_gamma    98.15205503692735

_space_group_name_H-M_alt    "P 1"
_space_group_IT_number       1

loop_
  _space_group_symop_operation_xyz
  'x, y, z'

loop_
  _atom_site_type_symbol
  _atom_site_label
  _atom_site_symmetry_multiplicity
  _atom_site_fract_x
  _atom_site_fract_y
  _atom_site_fract_z
  _atom_site_occupancy
  H   H1        1.0  0.30818332690248085  0.5042700396563445  0.9367942426021973  1.0000
  H   H2        1.0  0.6918166742263234  0.49572996041664147  0.06320575730946008  1.0000
  H   H3        1.0  0.9963547541128536  0.4139870637985645  0.7799211188134274  1.0000
  H   H4        1.0  0.003645244949910006  0.5860129362725137  0.22007888109982807  1.0000
  H   H5        1.0  0.6452457747443998  0.5174979245781881  0.7315495236964934  1.0000
  H   H6        1.0  0.35475422431836373  0.48250207549289004  0.2684504762167622  1.0000
  H   H7        1.0  0.29373120165764344  0.9370502946530108  0.22768286029734278  1.0000
  H   H8        1.0  0.7062687974051202  0.06294970541806742  0.7723171396159128  1.0000
  H   H9        1.0  0.9820981448115255  0.0798094549086399  0.22350054978766482  1.0000
  H   H10       1.0  0.017901856029814686  0.9201905443700368  0.7764994501312995  1.0000
  H   H11       1.0  0.6286210761181662  0.041638569373408665  0.08293139702417335  1.0000
  H   H12       1.0  0.3713789231471135  0.9583614309618786  0.9170686036165715  1.0000
  C   C1        1.0  0.901906024185454  0.704207534014565  0.9359473304519167  1.0000
  C   C2        1.0  0.09809397665588629  0.2957924652641116  0.06405266946704767  1.0000
  C   C3        1.0  0.10836453036020166  0.6521576882785032  0.9688128308063984  1.0000
  C   C4        1.0  0.891635468415098  0.3478423109982657  0.031187169114164248  1.0000
  C   C5        1.0  0.14957821285033343  0.5466683127406409  0.9137095370182667  1.0000
  C   C6        1.0  0.8504217862124301  0.4533316873304373  0.08629046289498887  1.0000
  C   C7        1.0  0.9769489950130658  0.49690983017845664  0.8267927270222676  1.0000
  C   C8        1.0  0.02305100404969781  0.5030901698926216  0.17320727289098795  1.0000
  C   C9        1.0  0.7791483500253322  0.554681584709867  0.7995653087814273  1.0000
  C   C10       1.0  0.22085164903743126  0.4453184153612112  0.20043469113182824  1.0000
  C   C11       1.0  0.8985634863464191  0.8141941659546531  0.009572661090829783  1.0000
  C   C12       1.0  0.10143651478238508  0.18580583411833296  0.9904273388208277  1.0000
  C   C13       1.0  0.10350728597067171  0.8277097088148487  0.08676960282818302  1.0000
  C   C14       1.0  0.8964927130920917  0.1722902912562294  0.9132303970850725  1.0000
  C   C15       1.0  0.1387330043868862  0.9234833367658736  0.1664452183694562  1.0000
  C   C16       1.0  0.8612669967419181  0.07651666330711254  0.8335547815422013  1.0000
  C   C17       1.0  0.9644048171673356  0.00195312939295303  0.16411653287982084  1.0000
  C   C18       1.0  0.03559518396146869  0.9980468706800332  0.8358834670318367  1.0000
  C   C19       1.0  0.7662705808145606  0.9807854422814191  0.0846302406522089  1.0000
  C   C20       1.0  0.2337294182482031  0.01921455778965928  0.9153697592610468  1.0000
  C   C21       1.0  0.2439257206476748  0.7271559600654364  0.06474461777360421  1.0000
  C   C22       1.0  0.7560742784150887  0.2728440400056417  0.9352553821396513  1.0000
  C   C23       1.0  0.812292220477723  0.25303774031112214  0.3924263475465916  1.0000
  C   C24       1.0  0.18770778065108124  0.7469622597618639  0.6075736523650658  1.0000
  C   C25       1.0  0.7420864172967201  0.1626487746116057  0.42787879540761725  1.0000
  C   C26       1.0  0.25791358383208407  0.8373512254613804  0.5721212045040401  1.0000
  C   C27       1.0  0.8864408778352444  0.15549882334527626  0.5110470663321686  1.0000
  C   C28       1.0  0.1135591232935598  0.8445011767277097  0.4889529335794887  1.0000
  C   C29       1.0  0.10872972723127133  0.2389415502594129  0.5608466492388029  1.0000
  C   C30       1.0  0.8912702738975329  0.7610584498135731  0.4391533506728545  1.0000
  C   C31       1.0  0.17998393926210854  0.32939418908880197  0.5252258898286501  1.0000
  C   C32       1.0  0.820016059800655  0.6706058109822761  0.47477411008460535  1.0000
  C   C33       1.0  0.0323841809559001  0.33681828257172214  0.4429731141518759  1.0000
  C   C34       1.0  0.9676158181068635  0.663181717499356  0.5570268857613796  1.0000
  N   N1        1.0  0.7396401694828482  0.6578438690394269  0.8529674319776164  1.0000
  N   N2        1.0  0.26035982957991544  0.3421561310316512  0.1470325679356392  1.0000
  N   N3        1.0  0.7294387609020674  0.8874387523335109  0.006612838372714792  1.0000
  N   N4        1.0  0.2705612381606961  0.11256124773756736  0.9933871615405407  1.0000
  O   O1        1.0  0.4308577550743486  0.7070491426964546  0.11475813631274911  1.0000
  O   O2        1.0  0.5691422439884148  0.2929508573746235  0.8852418636005065  1.0000
  F   F1        1.0  0.5264807376852418  0.07996886770677461  0.38190662861245234  1.0000
  F   F2        1.0  0.4735192613775216  0.9200311323643036  0.6180933713008032  1.0000
  F   F3        1.0  0.8058930883171547  0.06763451966564271  0.543718191392224  1.0000
  F   F4        1.0  0.19410691045814502  0.932365479611126  0.45628180852833844  1.0000
  F   F5        1.0  0.39412459499900454  0.4124898663276895  0.5708823501735568  1.0000
  F   F6        1.0  0.6058754037762951  0.5875101329490793  0.4291176497470057  1.0000
  F   F7        1.0  0.10537374132033583  0.42762160401160093  0.4130815788812634  1.0000
  F   F8        1.0  0.8946262574549638  0.5723783952651679  0.586918421039299  1.0000
  I   I1        1.0  0.5860204423119221  0.268229794538215  0.2704660786933718  1.0000
  I   I2        1.0  0.41397955675084147  0.7317702055328632  0.7295339212198838  1.0000
  I   I3        1.0  0.3154461297765012  0.23497775361281537  0.6895736475682883  1.0000
  I   I4        1.0  0.6845538713523028  0.7650222464601707  0.3104263523433691  1.0000
