data_image0
_chemical_formula_structural       H68C76N4O8
_chemical_formula_sum              "H68 C76 N4 O8"
_cell_length_a       8.940166578302962
_cell_length_b       16.559410201942203
_cell_length_c       9.947475219620845
_cell_angle_alpha    90.0
_cell_angle_beta     104.46475417217167
_cell_angle_gamma    90.0

_space_group_name_H-M_alt    "P 1"
_space_group_IT_number       1

loop_
  _space_group_symop_operation_xyz
  'x, y, z'

loop_
  _atom_site_type_symbol
  _atom_site_label
  _atom_site_symmetry_multiplicity
  _atom_site_fract_x
  _atom_site_fract_y
  _atom_site_fract_z
  _atom_site_occupancy
  H   H1        1.0  0.4832840825850652  0.15114633247665085  0.8969613280375599  1.0000
  H   H2        1.0  0.5167159184590735  0.6511463324180073  0.603038671905305  1.0000
  H   H3        1.0  0.51671591753885  0.8488536674060622  0.10303867132346359  1.0000
  H   H4        1.0  0.4832840816668563  0.34885366746470564  0.3969613284614494  1.0000
  H   H5        1.0  0.12009284367914784  0.06855360946773666  0.958439026262947  1.0000
  H   H6        1.0  0.8799071562118429  0.5685536094090932  0.541560974428079  1.0000
  H   H7        1.0  0.879907156446782  0.9314463904149763  0.04156097410380747  1.0000
  H   H8        1.0  0.12009284275892444  0.4314463904736199  0.4584390256811056  1.0000
  H   H9        1.0  0.9529365226847654  0.9680722377491323  0.8075636993497493  1.0000
  H   H10       1.0  0.04706347720622519  0.46807223780777585  0.6924363013412768  1.0000
  H   H11       1.0  0.047063477441164396  0.03192776213358069  0.1924363010170052  1.0000
  H   H12       1.0  0.9529365229197048  0.5319277620749372  0.3075636990254777  1.0000
  H   H13       1.0  0.07355998707219975  0.849957646338709  0.7181640859019438  1.0000
  H   H14       1.0  0.9264400128167763  0.34995764639735244  0.7818359137833513  1.0000
  H   H15       1.0  0.92644001305373  0.15004235354400405  0.2818359144648107  1.0000
  H   H16       1.0  0.07355998730915352  0.6500423534853605  0.21816408658340317  1.0000
  H   H17       1.0  0.35775538673210916  0.8320047780677646  0.7904497754158345  1.0000
  H   H18       1.0  0.6422446131588815  0.3320047781264081  0.7095502252751914  1.0000
  H   H19       1.0  0.6422446133938207  0.16799522181494841  0.20955022495091988  1.0000
  H   H20       1.0  0.35775538696704834  0.6679952217563049  0.29044977509156306  1.0000
  H   H21       1.0  0.2838724637194122  0.21540796661837835  0.10148400858020827  1.0000
  H   H22       1.0  0.7161275366414568  0.7154079665597348  0.3985159914622747  1.0000
  H   H23       1.0  0.7161275364045031  0.7845920332643347  0.8985159907808153  1.0000
  H   H24       1.0  0.28387246348447304  0.28459203332297817  0.6014840089044798  1.0000
  H   H25       1.0  0.18687622748604307  0.2417622681712691  0.31168106551345676  1.0000
  H   H26       1.0  0.8131237728768406  0.7417622681126256  0.18831893553475715  1.0000
  H   H27       1.0  0.8131237726398868  0.7582377317114439  0.6883189348532978  1.0000
  H   H28       1.0  0.18687622724908934  0.2582377317700874  0.8116810648319973  1.0000
  H   H29       1.0  0.32817758856417495  0.002043147043729359  0.46125906248978255  1.0000
  H   H30       1.0  0.6718224106415315  0.5020431469850859  0.038740937295130465  1.0000
  H   H31       1.0  0.6718224115617548  0.9979568528389837  0.538740937876972  1.0000
  H   H32       1.0  0.32817758948439835  0.4979568528976272  0.9612590630716239  1.0000
  H   H33       1.0  0.4316589032093454  0.97945139665045  0.2577270458512965  1.0000
  H   H34       1.0  0.5683410971515237  0.4794513967090934  0.24227295419118647  1.0000
  H   H35       1.0  0.5683410969165844  0.020548603232263093  0.7422729545154579  1.0000
  H   H36       1.0  0.4316589029744062  0.5205486031736196  0.757727046175568  1.0000
  H   H37       1.0  0.11820266637117349  0.027267567171386384  0.5591514702329015  1.0000
  H   H38       1.0  0.8817973335178027  0.5272675671127428  0.9408485294523936  1.0000
  H   H39       1.0  0.8817973337527418  0.9727324327113266  0.44084852912812206  1.0000
  H   H40       1.0  0.11820266660812727  0.4727324327699701  0.059151470914360925  1.0000
  H   H41       1.0  0.13357008134165183  0.10626835609118525  0.6850664590144325  1.0000
  H   H42       1.0  0.8664299185493388  0.6062683560325417  0.8149335416765936  1.0000
  H   H43       1.0  0.866429918784278  0.8937316437915278  0.31493354135232193  1.0000
  H   H44       1.0  0.13357008157659103  0.3937316438501713  0.185066458690161  1.0000
  H   H45       1.0  0.30351232594742933  0.06056247159590112  0.6578466298685902  1.0000
  H   H46       1.0  0.6964876750967094  0.5605624715372576  0.8421533700742749  1.0000
  H   H47       1.0  0.6964876741764859  0.9394375282868119  0.3421533694924334  1.0000
  H   H48       1.0  0.3035123250292205  0.43943752834545535  0.15784663029247958  1.0000
  H   H49       1.0  0.4374918763422259  0.1804910183123219  0.6126132490747487  1.0000
  H   H50       1.0  0.5625081235467503  0.6804910182536784  0.8873867506105464  1.0000
  H   H51       1.0  0.5625081237837039  0.8195089815703911  0.3873867512920057  1.0000
  H   H52       1.0  0.43749187657716504  0.3195089816290346  0.11261324875047718  1.0000
  H   H53       1.0  0.6083855951365832  0.18687296360573608  0.4503635505165726  1.0000
  H   H54       1.0  0.39161440406912323  0.6868729635470926  0.049636449268340446  1.0000
  H   H55       1.0  0.3916144049873321  0.8131270362769769  0.549636448844451  1.0000
  H   H56       1.0  0.608385594901644  0.3131270363356204  0.950363550840844  1.0000
  H   H57       1.0  0.8974960078092861  0.1800270615707286  0.550074650471506  1.0000
  H   H58       1.0  0.10250399208170452  0.680027061512085  0.9499253502195201  1.0000
  H   H59       1.0  0.10250399116148108  0.8199729383119845  0.44992534963767855  1.0000
  H   H60       1.0  0.8974960080442252  0.3199729383706279  0.05007465014723449  1.0000
  H   H61       1.0  0.9968696819286806  0.1663970785431007  0.809931660221272  1.0000
  H   H62       1.0  0.0031303179623101  0.6663970784844573  0.690068340469754  1.0000
  H   H63       1.0  0.0031303170420866663  0.8336029213396123  0.19006833988791252  1.0000
  H   H64       1.0  0.9968696821636196  0.3336029213982558  0.30993165989700044  1.0000
  H   H65       1.0  0.8067036287528  0.1560678791384058  0.955250091009875  1.0000
  H   H66       1.0  0.19329637229133861  0.6560678790797623  0.5447499089329899  1.0000
  H   H67       1.0  0.19329637137312972  0.8439321207443072  0.0447499093568794  1.0000
  H   H68       1.0  0.8067036278325767  0.3439321208029507  0.45525009042803366  1.0000
  C   C1        1.0  0.17195882286309608  0.01672655345946522  0.919916332291986  1.0000
  C   C2        1.0  0.82804117702588  0.5167265534008217  0.5800836673933091  1.0000
  C   C3        1.0  0.8280411772608192  0.9832734464232478  0.08008366706903748  1.0000
  C   C4        1.0  0.17195882310004987  0.4832734464818913  0.41991633297344544  1.0000
  C   C5        1.0  0.07795656792446193  0.9604294226695738  0.8356043003303073  1.0000
  C   C6        1.0  0.9220434319665287  0.46042942272821724  0.6643957003607186  1.0000
  C   C7        1.0  0.9220434322014678  0.039570577213139266  0.16439570003644716  1.0000
  C   C8        1.0  0.07795656815940112  0.5395705771544957  0.3356043000060358  1.0000
  C   C9        1.0  0.1455253731962379  0.894089840727751  0.7859704456622876  1.0000
  C   C10       1.0  0.8544746266927382  0.3940898401825083  0.7140295540230074  1.0000
  C   C11       1.0  0.8544746269276773  0.10591015975884824  0.21402955369873589  1.0000
  C   C12       1.0  0.14552537343319166  0.6059101597002048  0.285970446343747  1.0000
  C   C13       1.0  0.30479668738657023  0.8844372016511943  0.8257885040404592  1.0000
  C   C14       1.0  0.6952033125024059  0.38443720170983775  0.6742114956448357  1.0000
  C   C15       1.0  0.695203312737345  0.11556279823151874  0.17421149532056432  1.0000
  C   C16       1.0  0.30479668646836133  0.6155627987767616  0.3257885044643487  1.0000
  C   C17       1.0  0.4275411880425282  0.07784093178927454  0.03955013956508062  1.0000
  C   C18       1.0  0.5724588123183408  0.577840931730631  0.4604498604774023  1.0000
  C   C19       1.0  0.5724588120813872  0.9221590680934385  0.9604498597959429  1.0000
  C   C20       1.0  0.427541187807589  0.422159068152082  0.5395501398893521  1.0000
  C   C21       1.0  0.33366796976043717  0.00881418650906305  0.9573107625691478  1.0000
  C   C22       1.0  0.6663320301285389  0.5088141870543058  0.5426892371161472  1.0000
  C   C23       1.0  0.6663320303634781  0.99118581337365  0.04268923679187568  1.0000
  C   C24       1.0  0.3336679699973909  0.49118581343229345  0.45731076325060727  1.0000
  C   C25       1.0  0.4003924561072878  0.9406147966654715  0.9132552292610991  1.0000
  C   C26       1.0  0.5996075437816882  0.44061479672411497  0.5867447704241959  1.0000
  C   C27       1.0  0.599607544018642  0.05938520321724151  0.08674477110565529  1.0000
  C   C28       1.0  0.40039245634222703  0.5593852031585981  0.41325522893682765  1.0000
  C   C29       1.0  0.36506310941710485  0.0958756236266066  0.16592839572039178  1.0000
  C   C30       1.0  0.6349368897886015  0.5958756241718494  0.33407160406452124  1.0000
  C   C31       1.0  0.6349368907068105  0.9041243762561064  0.8340716036406318  1.0000
  C   C32       1.0  0.36506310918216567  0.4041243763147499  0.6659283960446633  1.0000
  C   C33       1.0  0.2943505519138688  0.16940112695988344  0.1812215481246722  1.0000
  C   C34       1.0  0.7056494484470002  0.6694011269012399  0.31877845191781073  1.0000
  C   C35       1.0  0.705649448212061  0.8305988729228296  0.8187784522420822  1.0000
  C   C36       1.0  0.29435055167691504  0.3305988729814731  0.6812215474432127  1.0000
  C   C37       1.0  0.2375456191114142  0.18368477940375239  0.2971464217844176  1.0000
  C   C38       1.0  0.7624543800942922  0.6836847793451089  0.20285357800049542  1.0000
  C   C39       1.0  0.7624543810145157  0.8163152210828468  0.7028535785823369  1.0000
  C   C40       1.0  0.2375456188744604  0.3163152211414904  0.7971464211029582  1.0000
  C   C41       1.0  0.24701038149324012  0.12357909581586332  0.3978202051130499  1.0000
  C   C42       1.0  0.7529896188676289  0.6235790957572198  0.10217979492943303  1.0000
  C   C43       1.0  0.7529896186306752  0.8764209040668497  0.6021797942479735  1.0000
  C   C44       1.0  0.24701038125830088  0.37642090412549317  0.8978202054373213  1.0000
  C   C45       1.0  0.31820121430706505  0.04964794095767817  0.38421190502330294  1.0000
  C   C46       1.0  0.681798786053804  0.549647941502921  0.11578809501918  1.0000
  C   C47       1.0  0.6817987858188648  0.9503520589250348  0.6157880953434516  1.0000
  C   C48       1.0  0.31820121407212587  0.45035205898367836  0.8842119053475744  1.0000
  C   C49       1.0  0.3770105533185356  0.037027326005130624  0.2686511263455679  1.0000
  C   C50       1.0  0.6229894470423334  0.5370273265503734  0.23134887369691498  1.0000
  C   C51       1.0  0.6229894468053797  0.9629726738775823  0.7313488730154556  1.0000
  C   C52       1.0  0.37701055308359643  0.4629726739362259  0.7686511266698395  1.0000
  C   C53       1.0  0.1854716741500346  0.08008709753711245  0.6068370122822391  1.0000
  C   C54       1.0  0.8145283257389415  0.580087097478469  0.893162987403056  1.0000
  C   C55       1.0  0.8145283259758953  0.9199129023456006  0.3931629880845155  1.0000
  C   C56       1.0  0.1854716743849738  0.41991290240424406  0.10683701195796748  1.0000
  C   C57       1.0  0.5622100319274658  0.17601646522761663  0.6517013415238152  1.0000
  C   C58       1.0  0.4377899679615103  0.6760164651689732  0.8482986581614798  1.0000
  C   C59       1.0  0.43778996819846405  0.8239835352589826  0.34829865884293915  1.0000
  C   C60       1.0  0.562210032162405  0.32398353471373986  0.15170134119954382  1.0000
  C   C61       1.0  0.6587914699294739  0.17991366018884966  0.5612803360435658  1.0000
  C   C62       1.0  0.3412085299595021  0.6799136601302062  0.9387196636417294  1.0000
  C   C63       1.0  0.3412085301964559  0.8200863396938634  0.4387196643231889  1.0000
  C   C64       1.0  0.6587914701644131  0.32008633975250683  0.06128033571929413  1.0000
  C   C65       1.0  0.8179639223462194  0.17642032079484063  0.6171378267747566  1.0000
  C   C66       1.0  0.1820360775427567  0.6764203207361972  0.8828621729105384  1.0000
  C   C67       1.0  0.18203607777769587  0.8235796790878724  0.38286217258626687  1.0000
  C   C68       1.0  0.8179639225831731  0.32357967914651586  0.11713782745621604  1.0000
  C   C69       1.0  0.8734913581126813  0.16874739594724564  0.7609049267576492  1.0000
  C   C70       1.0  0.12650864177629484  0.6687473958886021  0.7390950729276458  1.0000
  C   C71       1.0  0.12650864201123402  0.8312526039354674  0.23909507260337434  1.0000
  C   C72       1.0  0.8734913571944722  0.33125260399411083  0.2609049271815387  1.0000
  C   C73       1.0  0.7683123535737599  0.16379598590304112  0.8429813428610841  1.0000
  C   C74       1.0  0.23168764631521618  0.6637959858443976  0.6570186568242111  1.0000
  C   C75       1.0  0.2316876465501554  0.8362040139796719  0.15701865649993957  1.0000
  C   C76       1.0  0.7683123538107136  0.33620401403831546  0.3429813435425434  1.0000
  N   N1        1.0  0.6145797533334932  0.16758744762989874  0.7898468362939592  1.0000
  N   N2        1.0  0.3854202465554829  0.6675874475712552  0.7101531633913357  1.0000
  N   N3        1.0  0.38542024679243675  0.8324125522528143  0.2101531640727952  1.0000
  N   N4        1.0  0.6145797535684323  0.3324125523114578  0.2898468359696878  1.0000
  O   O1        1.0  0.18404419484005002  0.14235277351384906  0.5067026876092667  1.0000
  O   O2        1.0  0.8159558050509406  0.6423527734552056  0.9932973130817592  1.0000
  O   O3        1.0  0.8159558052858799  0.8576472263688639  0.4932973127574877  1.0000
  O   O4        1.0  0.18404419507498923  0.35764722642750746  0.006702687284995174  1.0000
  O   O5        1.0  0.40437456359791063  0.1489175187960965  0.9533492205920289  1.0000
  O   O6        1.0  0.59562543629308  0.6489175187374531  0.546650780098997  1.0000
  O   O7        1.0  0.5956254365280192  0.8510824810866165  0.04665077977472554  1.0000
  O   O8        1.0  0.40437456383284986  0.35108248114526003  0.4533492202677574  1.0000
