data_image0
_chemical_formula_structural       H94C56N10O8S2
_chemical_formula_sum              "H94 C56 N10 O8 S2"
_cell_length_a       5.459445556722154
_cell_length_b       9.459616273249967
_cell_length_c       28.9652228188121
_cell_angle_alpha    83.44222261317958
_cell_angle_beta     87.47118032496088
_cell_angle_gamma    84.77753154676421

_space_group_name_H-M_alt    "P 1"
_space_group_IT_number       1

loop_
  _space_group_symop_operation_xyz
  'x, y, z'

loop_
  _atom_site_type_symbol
  _atom_site_label
  _atom_site_symmetry_multiplicity
  _atom_site_fract_x
  _atom_site_fract_y
  _atom_site_fract_z
  _atom_site_occupancy
  H   H1        1.0  0.7290380221528653  0.19790605566699987  0.05126385575877594  1.0000
  H   H2        1.0  0.270961978347422  0.8020939435770079  0.9487361442223607  1.0000
  H   H3        1.0  0.7213144292919377  0.12676334663642586  0.14427950757841942  1.0000
  H   H4        1.0  0.2786855712083495  0.873236652607582  0.8557204924027173  1.0000
  H   H5        1.0  0.05053404511642702  0.4954574535206396  0.03146450921540127  1.0000
  H   H6        1.0  0.9494659552095674  0.504542546800227  0.9685354910693992  1.0000
  H   H7        1.0  0.8230501507494961  0.5117385025430286  0.10754218991535668  1.0000
  H   H8        1.0  0.1769498497507912  0.4882614967009794  0.89245781006578  1.0000
  H   H9        1.0  0.9892401914403851  0.3591813170304773  0.17848978412257524  1.0000
  H   H10       1.0  0.010759808891417554  0.6408186832815845  0.8215102158172766  1.0000
  H   H11       1.0  0.6662747175985553  0.05544580559559697  0.24701255905113992  1.0000
  H   H12       1.0  0.3337252827332474  0.9445541947164651  0.7529874408887118  1.0000
  H   H13       1.0  0.9477735638345353  0.04232709266760541  0.21359995560255943  1.0000
  H   H14       1.0  0.05222643466461236  0.957672907639163  0.7864000443518984  1.0000
  H   H15       1.0  0.3241668609699976  0.828995250569582  0.23004940297729745  1.0000
  H   H16       1.0  0.6758331393618051  0.1710047497424798  0.7699505969625543  1.0000
  H   H17       1.0  0.5108405640890695  0.4800081010640157  0.18005696579299912  1.0000
  H   H18       1.0  0.4891594362427332  0.5199918992480462  0.8199430341468527  1.0000
  H   H19       1.0  0.24392918327751265  0.5861784629913965  0.19727965072596043  1.0000
  H   H20       1.0  0.75607081705429  0.4138215373206654  0.8027203492138913  1.0000
  H   H21       1.0  0.2990791318486288  0.3798576282433244  0.25459564809880264  1.0000
  H   H22       1.0  0.7009208684831738  0.6201423720687376  0.7454043518410491  1.0000
  H   H23       1.0  0.3665616092841719  0.5313433053653556  0.28086408078748154  1.0000
  H   H24       1.0  0.6334383910476308  0.4686566949467063  0.7191359191523703  1.0000
  H   H25       1.0  0.7538531145506231  0.31947976421827246  0.23987368210260537  1.0000
  H   H26       1.0  0.24614688578117966  0.6805202360937893  0.7601263178372464  1.0000
  H   H27       1.0  0.8185391685000628  0.46408382899896  0.2691485348480429  1.0000
  H   H28       1.0  0.18146083182593167  0.5359161713219066  0.7308514654367577  1.0000
  H   H29       1.0  0.6036932529476315  0.35366779054843483  0.341493266607609  1.0000
  H   H30       1.0  0.3963067457200003  0.6463322086902795  0.6585067333881338  1.0000
  H   H31       1.0  0.5424358534303341  0.2093955519669942  0.31163199930738744  1.0000
  H   H32       1.0  0.45756414506881316  0.7906044483397742  0.6883680006470705  1.0000
  H   H33       1.0  0.057363258509895425  0.2940057986745481  0.32942994584607665  1.0000
  H   H34       1.0  0.9426367418219074  0.7059942016375137  0.6705700540937751  1.0000
  H   H35       1.0  0.00036850776084131764  0.15018411564813292  0.29927418187603444  1.0000
  H   H36       1.0  0.9996314907383058  0.8498158846586354  0.7007258180784235  1.0000
  H   H37       1.0  0.8399517629675013  0.18283066887562796  0.40082945515792473  1.0000
  H   H38       1.0  0.1600482355316461  0.8171693314311405  0.599170544796533  1.0000
  H   H39       1.0  0.7835560660726465  0.037243965448696716  0.37121702988734817  1.0000
  H   H40       1.0  0.2164439342591561  0.9627560348633651  0.6287829700525036  1.0000
  H   H41       1.0  0.2957313777895143  0.12459224855425687  0.3893591074170255  1.0000
  H   H42       1.0  0.7042686227049648  0.8754077506985557  0.6106408929090599  1.0000
  H   H43       1.0  0.2393917183869932  0.9774899210626816  0.3605226161876976  1.0000
  H   H44       1.0  0.7606082819390013  0.022510079258184844  0.6394773840971029  1.0000
  H   H45       1.0  0.07967424549158798  0.0185600307679597  0.46143184018022393  1.0000
  H   H46       1.0  0.9203257550086995  0.981439968476048  0.5385681598009127  1.0000
  H   H47       1.0  0.017393962685767032  0.8717463060847968  0.4329878545281784  1.0000
  H   H48       1.0  0.9826060376460356  0.12825369422726496  0.5670121454116733  1.0000
  H   H49       1.0  0.5334490398154311  0.9543748796003665  0.45048836961421584  1.0000
  H   H50       1.0  0.4665509605163715  0.045625120711695374  0.5495116303256359  1.0000
  H   H51       1.0  0.4714955076466075  0.8083862132542577  0.4215629973860097  1.0000
  H   H52       1.0  0.5285044926851952  0.191613787057804  0.5784370025538421  1.0000
  H   H53       1.0  0.3135038818752591  0.8484804701403565  0.522572955535544  1.0000
  H   H54       1.0  0.6864961184565433  0.15151953017170525  0.47742704440430783  1.0000
  H   H55       1.0  0.25118712802495835  0.7025143108972981  0.4936676570147219  1.0000
  H   H56       1.0  0.7488128724753291  0.29748568834670974  0.5063323429664147  1.0000
  H   H57       1.0  0.7675456467272769  0.7841335778403162  0.5114612957220607  1.0000
  H   H58       1.0  0.2324543517718704  0.21586642246645205  0.48853870423239715  1.0000
  H   H59       1.0  0.7049466387737168  0.6385155595947303  0.4824181852858163  1.0000
  H   H60       1.0  0.2950533615580859  0.3614844407173315  0.5175818146540355  1.0000
  H   H61       1.0  0.5488577380761078  0.6774155604972266  0.5835470410538302  1.0000
  H   H62       1.0  0.4511422622556948  0.3225844398148352  0.4164529588860217  1.0000
  H   H63       1.0  0.4858831526780522  0.531847560315509  0.554463982290315  1.0000
  H   H64       1.0  0.5141168478222351  0.46815243892849895  0.4455360176908216  1.0000
  H   H65       1.0  0.0029351499212549237  0.6134752202207908  0.5717810212276511  1.0000
  H   H66       1.0  0.9970648505790326  0.386524779023217  0.4282189787534855  1.0000
  H   H67       1.0  0.9392001073706003  0.4682320038158713  0.5426660336039478  1.0000
  H   H68       1.0  0.060799893129686956  0.5317679954281365  0.4573339663771888  1.0000
  H   H69       1.0  0.7913325702686738  0.50541760596852  0.6442819554894545  1.0000
  H   H70       1.0  0.20866743023161347  0.4945823932754878  0.3557180444916822  1.0000
  H   H71       1.0  0.7243794020767096  0.3603145163213896  0.6152660904594923  1.0000
  H   H72       1.0  0.27562059841776937  0.6396854829314229  0.3847339098665931  1.0000
  H   H73       1.0  0.24351499704389437  0.4414116814376049  0.6309611529504694  1.0000
  H   H74       1.0  0.756485001455253  0.5585883188691634  0.3690388470039883  1.0000
  H   H75       1.0  0.17640734536553734  0.2972323709162027  0.6017325680523983  1.0000
  H   H76       1.0  0.8235926551289418  0.7027676283366099  0.3982674322736871  1.0000
  H   H77       1.0  0.9736041831363088  0.1839720883543981  0.6752763581590269  1.0000
  H   H78       1.0  0.026395817195493963  0.8160279119576637  0.324723641780825  1.0000
  H   H79       1.0  0.043204034096584  0.3289340343970514  0.7048258116286771  1.0000
  H   H80       1.0  0.9567959662352188  0.6710659659150103  0.29517418831117465  1.0000
  H   H81       1.0  0.2843388114618292  0.21234659577884105  0.6838513284907551  1.0000
  H   H82       1.0  0.7156611890384581  0.7876534034651668  0.31614867149038167  1.0000
  H   H83       1.0  0.43277881482199704  0.976712462929765  0.11013850652270533  1.0000
  H   H84       1.0  0.5672211836771504  0.023287537377003342  0.8898614934317526  1.0000
  H   H85       1.0  0.3961120476148196  0.8079827963584965  0.08919313838707152  1.0000
  H   H86       1.0  0.6038879527169831  0.19201720395356536  0.9108068615527802  1.0000
  H   H87       1.0  0.2013482632062246  0.8637721046295499  0.13726208525846537  1.0000
  H   H88       1.0  0.7986517371197699  0.13622789569131669  0.8627379150263352  1.0000
  H   H89       1.0  0.8551553318652393  0.7905256943356951  0.09585376813718197  1.0000
  H   H90       1.0  0.14484466680239264  0.20947430490301924  0.9041462318585608  1.0000
  H   H91       1.0  0.03215103370201524  0.7543744174858836  0.04337027116613798  1.0000
  H   H92       1.0  0.9678489666297875  0.2456255828261781  0.9566297287737138  1.0000
  H   H93       1.0  0.7550446353097415  0.8701622969663179  0.03926496604242923  1.0000
  H   H94       1.0  0.24495536518473743  0.1298377022864947  0.9607350342836561  1.0000
  C   C1        1.0  0.4696902317750083  0.3213134907530811  0.016124614946761734  1.0000
  C   C2        1.0  0.5303097685567945  0.6786865095589807  0.98387538499309  1.0000
  C   C3        1.0  0.3323624059136324  0.3401101304469271  0.06130296085029437  1.0000
  C   C4        1.0  0.6676375944181703  0.6598898698651348  0.9386970390895574  1.0000
  C   C5        1.0  0.11711141952947889  0.43196353603086934  0.06274145866303092  1.0000
  C   C6        1.0  0.8828885808023237  0.5680364642811925  0.9372585412768207  1.0000
  C   C7        1.0  0.9903192417393712  0.4405236965303745  0.10523846460063038  1.0000
  C   C8        1.0  0.00968075859243145  0.5594763037816874  0.8947615353392215  1.0000
  C   C9        1.0  0.08111540574391925  0.3568045873144409  0.14448519920089634  1.0000
  C   C10       1.0  0.9188845945878834  0.643195412997621  0.8555148007389554  1.0000
  C   C11       1.0  0.29978398961654606  0.2694522756617986  0.13984087781364396  1.0000
  C   C12       1.0  0.7002160107152566  0.7305477246502632  0.8601591221262078  1.0000
  C   C13       1.0  0.40181913550787607  0.17830151269514535  0.18184751711108338  1.0000
  C   C14       1.0  0.5981808631597558  0.821698486543569  0.8181524828846594  1.0000
  C   C15       1.0  0.7514674703884661  0.025295833459375538  0.21413171661874797  1.0000
  C   C16       1.0  0.24853253011182114  0.9747041657846323  0.7858682833623888  1.0000
  C   C17       1.0  0.7180876872550902  0.8727479752387254  0.20941017150724314  1.0000
  C   C18       1.0  0.2819123130767125  0.12725202507333658  0.7905898284326087  1.0000
  C   C19       1.0  0.5096728375158053  0.7989659620564317  0.21768458141643426  1.0000
  C   C20       1.0  0.49032716115182673  0.20103403718228266  0.7823154185793084  1.0000
  C   C21       1.0  0.4315872796120876  0.5456406260612918  0.2067756695642989  1.0000
  C   C22       1.0  0.568412720719715  0.45435937425077  0.7932243303755528  1.0000
  C   C23       1.0  0.43325120284170887  0.45978403840000714  0.25467418300503963  1.0000
  C   C24       1.0  0.5667487976527702  0.5402159608528052  0.7453258173210459  1.0000
  C   C25       1.0  0.6842588736029166  0.3847525017978246  0.2675980464674778  1.0000
  C   C26       1.0  0.31574112672888593  0.6152474985142372  0.732401953472374  1.0000
  C   C27       1.0  0.675772146061422  0.2891645778276797  0.31367301761511895  1.0000
  C   C28       1.0  0.32422785426457246  0.7108354224931869  0.6863269826696815  1.0000
  C   C29       1.0  0.9255760583500784  0.21351347414061295  0.32717298204137885  1.0000
  C   C30       1.0  0.07442394198172414  0.7864865261714489  0.672827017898473  1.0000
  C   C31       1.0  0.9149627051898748  0.11810791980599047  0.3732561806575937  1.0000
  C   C32       1.0  0.0850372953104125  0.8818920794380173  0.626743819323543  1.0000
  C   C33       1.0  0.16400422823618338  0.04378102994951713  0.3876938882751943  1.0000
  C   C34       1.0  0.8359957720956193  0.9562189703625448  0.6123061116646575  1.0000
  C   C35       1.0  0.1518005065059113  0.9513143207894047  0.4343380905654531  1.0000
  C   C36       1.0  0.8481994938258914  0.048685679522657094  0.5656619093743986  1.0000
  C   C37       1.0  0.3991553593540961  0.8749368282373475  0.44883580031022857  1.0000
  C   C38       1.0  0.6008446409777064  0.12506317207471424  0.551164199629623  1.0000
  C   C39       1.0  0.38581310112932704  0.781753965338927  0.495356555203342  1.0000
  C   C40       1.0  0.6141868993709603  0.21824603390508074  0.5046434447777947  1.0000
  C   C41       1.0  0.6330477095214642  0.7048233800165634  0.5097697087832168  1.0000
  C   C42       1.0  0.36695228897768317  0.29517662029020497  0.490230291171241  1.0000
  C   C43       1.0  0.6205140691570439  0.6110614105771036  0.5561945475551723  1.0000
  C   C44       1.0  0.3794859311689505  0.38893858974376294  0.4438054527296282  1.0000
  C   C45       1.0  0.8684649463515819  0.5340350124209028  0.5702325997164929  1.0000
  C   C46       1.0  0.13153505398022078  0.4659649878911591  0.4297674002233589  1.0000
  C   C47       1.0  0.8595513582006146  0.43953854283739274  0.6165955413671723  1.0000
  C   C48       1.0  0.14044864213118818  0.5604614574746691  0.3834044585726794  1.0000
  C   C49       1.0  0.10876751926848774  0.3620878626935905  0.6296836389064356  1.0000
  C   C50       1.0  0.8912324810633148  0.6379121376184713  0.37031636103341625  1.0000
  C   C51       1.0  0.10218087052449483  0.2667687269110673  0.6758296853574693  1.0000
  C   C52       1.0  0.8978191298014995  0.7332312734097992  0.3241703149273312  1.0000
  C   C53       1.0  0.3018012708711311  0.8994187386272193  0.10487978236784827  1.0000
  C   C54       1.0  0.6981987294606716  0.10058126168484247  0.8951202175720034  1.0000
  C   C55       1.0  0.9132362270013434  0.8331857543372582  0.06069901584929937  1.0000
  C   C56       1.0  0.0867637733304593  0.16681424597480368  0.9393009840905523  1.0000
  N   N1        1.0  0.4242299569509546  0.2621081190101282  0.09914935848184789  1.0000
  N   N2        1.0  0.5757700435493327  0.7378918802338796  0.9008506414992887  1.0000
  N   N3        1.0  0.6357481293601419  0.12108084091058775  0.1767258674216149  1.0000
  N   N4        1.0  0.3642518709716609  0.8789191594014741  0.823274132518237  1.0000
  N   N5        1.0  0.9000302109668268  0.7831875200694551  0.19186397642510986  1.0000
  N   N6        1.0  0.0999697893591676  0.2168124802514114  0.8081360238596907  1.0000
  N   N7        1.0  0.8147408581030502  0.6583571319253585  0.18892175682093834  1.0000
  N   N8        1.0  0.18525914222294435  0.341642868395508  0.8110782434638621  1.0000
  N   N9        1.0  0.5774596206097157  0.6681031237431788  0.2043237583438832  1.0000
  N   N10       1.0  0.4225403797220869  0.33189687656888295  0.7956762415959687  1.0000
  O   O1        1.0  0.6815767100129612  0.2386116436676501  0.018613963145001175  1.0000
  O   O2        1.0  0.3184232884861862  0.7613883566391183  0.9813860368094566  1.0000
  O   O3        1.0  0.39202205969318216  0.3748287299510332  0.978323005805966  1.0000
  O   O4        1.0  0.6079779388059653  0.6251712703557352  0.021676994148491866  1.0000
  O   O5        1.0  0.2752793423454962  0.16080818869536487  0.21868445115621343  1.0000
  O   O6        1.0  0.7247206579863065  0.839191811616697  0.7813155487836383  1.0000
  O   O7        1.0  0.9141200008622823  0.09023521579247076  0.08937956765902684  1.0000
  O   O8        1.0  0.08587999946952035  0.9097647845195911  0.910620432280825  1.0000
  S   S1        1.0  0.08343998944644493  0.9848738774720551  0.06383832200974059  1.0000
  S   S2        1.0  0.9165600108795495  0.01512612284881146  0.93616167827506  1.0000
