data_image0
_chemical_formula_structural       H140C136O16
_chemical_formula_sum              "H140 C136 O16"
_cell_length_a       17.207425075768075
_cell_length_b       11.709334022741636
_cell_length_c       14.036623519641223
_cell_angle_alpha    90.0
_cell_angle_beta     109.21537711971128
_cell_angle_gamma    90.0

_space_group_name_H-M_alt    "P 1"
_space_group_IT_number       1

loop_
  _space_group_symop_operation_xyz
  'x, y, z'

loop_
  _atom_site_type_symbol
  _atom_site_label
  _atom_site_symmetry_multiplicity
  _atom_site_fract_x
  _atom_site_fract_y
  _atom_site_fract_z
  _atom_site_occupancy
  H   H1        1.0  0.6389215270481486  0.6837124258690768  0.3489770965440294  1.0000
  H   H2        1.0  0.3610784730544114  0.6837124258690768  0.6510229034984427  1.0000
  H   H3        1.0  0.13892152691201518  0.1837124251321278  0.34897709655070475  1.0000
  H   H4        1.0  0.8610784731905448  0.1837124251321278  0.6510229034917674  1.0000
  H   H5        1.0  0.8161731356776781  0.6845000462394657  0.30964940769975347  1.0000
  H   H6        1.0  0.18382686442488183  0.6845000462394657  0.6903505923427187  1.0000
  H   H7        1.0  0.3161731355415447  0.18450004635653633  0.3096494077064289  1.0000
  H   H8        1.0  0.6838268645610153  0.18450004635653633  0.6903505923360432  1.0000
  H   H9        1.0  0.7716679378241564  0.4519299346762483  0.3996125739846203  1.0000
  H   H10       1.0  0.22833206227840358  0.4519299346762483  0.6003874260578518  1.0000
  H   H11       1.0  0.27166793768802294  0.9519299345591777  0.3996125739912957  1.0000
  H   H12       1.0  0.7283320624145371  0.9519299345591777  0.6003874260511765  1.0000
  H   H13       1.0  0.678047110952847  0.4600686622772299  0.23742567623060631  1.0000
  H   H14       1.0  0.32195288914971293  0.4600686622772299  0.7625743238118659  1.0000
  H   H15       1.0  0.17804711081671362  0.9600686621601594  0.23742567623728172  1.0000
  H   H16       1.0  0.8219528886704255  0.9600686621601594  0.7625743235527033  1.0000
  H   H17       1.0  0.9278240792197061  0.6491813005963067  0.5050260068382784  1.0000
  H   H18       1.0  0.07217592088285392  0.6491813005963067  0.49497399320419383  1.0000
  H   H19       1.0  0.4278240790835727  0.1491813007133773  0.5050260068449537  1.0000
  H   H20       1.0  0.5721759210189873  0.1491813007133773  0.49497399319751834  1.0000
  H   H21       1.0  0.9087272530555186  0.5057312745967314  0.45761386631221723  1.0000
  H   H22       1.0  0.0912727470470413  0.5057312745967314  0.5423861337302549  1.0000
  H   H23       1.0  0.4087272529193852  0.005731274713801949  0.45761386631889267  1.0000
  H   H24       1.0  0.5912727465677539  0.005731274713801949  0.5423861334710923  1.0000
  H   H25       1.0  0.8740647270129142  0.5521184225715932  0.559078208138295  1.0000
  H   H26       1.0  0.12593527308964586  0.5521184225715932  0.4409217919041771  1.0000
  H   H27       1.0  0.3740647268767807  0.05211842268866374  0.5590782081449704  1.0000
  H   H28       1.0  0.6259352732257792  0.05211842268866374  0.4409217918975017  1.0000
  H   H29       1.0  0.5254669470710662  0.6662862580269348  0.14719353706908447  1.0000
  H   H30       1.0  0.47453305303149373  0.6662862580269348  0.8528064629733877  1.0000
  H   H31       1.0  0.02546694693493283  0.1662862581440053  0.1471935370757599  1.0000
  H   H32       1.0  0.9745330531676272  0.1662862581440053  0.8528064629667123  1.0000
  H   H33       1.0  0.5409407888354069  0.52031994203659  0.18631324370524108  1.0000
  H   H34       1.0  0.45905921126715293  0.52031994203659  0.8136867563372311  1.0000
  H   H35       1.0  0.040940788699273555  0.0203199421536606  0.1863132437119165  1.0000
  H   H36       1.0  0.9590592107878656  0.0203199421536606  0.8136867560780685  1.0000
  H   H37       1.0  0.5770825033959017  0.572120470471595  0.0873172844896751  1.0000
  H   H38       1.0  0.4229174967066583  0.572120470471595  0.9126827155527971  1.0000
  H   H39       1.0  0.07708250325976825  0.07212047058866564  0.0873172844963505  1.0000
  H   H40       1.0  0.9229174962273711  0.07212047058866564  0.9126827152936346  1.0000
  H   H41       1.0  0.7218865927017127  0.7112519502667672  0.5849023880829465  1.0000
  H   H42       1.0  0.27811340678542645  0.7112519502667672  0.4150976117070386  1.0000
  H   H43       1.0  0.22188659318100007  0.21125195038383776  0.584902388342109  1.0000
  H   H44       1.0  0.7781134069215598  0.21125195038383776  0.41509761170036324  1.0000
  H   H45       1.0  0.7945077715980258  0.6787495355896522  0.7708955950936701  1.0000
  H   H46       1.0  0.20549222850453405  0.6787495355896522  0.22910440494880202  1.0000
  H   H47       1.0  0.2945077714618925  0.17874953485270323  0.7708955951003454  1.0000
  H   H48       1.0  0.7054922286406674  0.17874953485270323  0.22910440494212658  1.0000
  H   H49       1.0  0.829476665760805  0.48290076438318746  0.8349184187554957  1.0000
  H   H50       1.0  0.17052333434175496  0.48290076438318746  0.1650815812869766  1.0000
  H   H51       1.0  0.3294766656246716  0.9829007642661169  0.834918418762171  1.0000
  H   H52       1.0  0.6705233344778884  0.9829007642661169  0.16508158128030115  1.0000
  H   H53       1.0  0.7940706137190315  0.3179922652106717  0.7169162885556749  1.0000
  H   H54       1.0  0.20592938638352842  0.3179922652106717  0.2830837114867973  1.0000
  H   H55       1.0  0.29407061358289815  0.8179922650936011  0.7169162885623503  1.0000
  H   H56       1.0  0.7059293865196619  0.8179922650936011  0.2830837114801219  1.0000
  H   H57       1.0  0.7250736024947187  0.3491123519117837  0.534733547138789  1.0000
  H   H58       1.0  0.27492639760784127  0.3491123519117837  0.4652664529036832  1.0000
  H   H59       1.0  0.22507360235858528  0.849112351794713  0.5347335471454644  1.0000
  H   H60       1.0  0.7749263977439746  0.849112351794713  0.4652664528970078  1.0000
  H   H61       1.0  0.6717774442681553  0.332709256771875  0.3563227530683247  1.0000
  H   H62       1.0  0.32822255583440463  0.332709256771875  0.6436772469741475  1.0000
  H   H63       1.0  0.1717774441320219  0.8327092566548044  0.3563227530750001  1.0000
  H   H64       1.0  0.8282225559705381  0.8327092566548044  0.6436772469674721  1.0000
  H   H65       1.0  0.5495554381244466  0.214053354796445  0.28270837434003343  1.0000
  H   H66       1.0  0.45044456136269256  0.214053354796445  0.7172916254499516  1.0000
  H   H67       1.0  0.049555438603734  0.7140533546793744  0.2827083745991959  1.0000
  H   H68       1.0  0.950444561498826  0.7140533546793744  0.7172916254432762  1.0000
  H   H69       1.0  0.41143072127231645  0.2825291851419409  0.2802256830653653  1.0000
  H   H70       1.0  0.5885692788302435  0.2825291851419409  0.7197743169771069  1.0000
  H   H71       1.0  0.9114307214048343  0.78252918587889  0.28022568376964085  1.0000
  H   H72       1.0  0.08856927869772567  0.78252918587889  0.7197743162728313  1.0000
  H   H73       1.0  0.39929464453994734  0.4703152492963529  0.3572183080921106  1.0000
  H   H74       1.0  0.6007053549471919  0.4703152492963529  0.6427816916978744  1.0000
  H   H75       1.0  0.8992946446760809  0.9703152491792824  0.3572183080854352  1.0000
  H   H76       1.0  0.10070535542647918  0.9703152491792824  0.6427816919570369  1.0000
  H   H77       1.0  0.5228182810817841  0.5952660481341361  0.4234773188573672  1.0000
  H   H78       1.0  0.47718171902077583  0.5952660481341361  0.576522681185105  1.0000
  H   H79       1.0  0.022818281561071418  0.0952660482512066  0.4234773191165298  1.0000
  H   H80       1.0  0.9771817185414885  0.0952660482512066  0.5765226809259424  1.0000
  H   H81       1.0  0.9304948857191924  0.6052975409390956  0.2255905957813438  1.0000
  H   H82       1.0  0.0695051143833676  0.6052975409390956  0.7744094042611284  1.0000
  H   H83       1.0  0.43049488558667454  0.10529754105616608  0.2255905950770682  1.0000
  H   H84       1.0  0.5695051145158854  0.10529754105616608  0.774409404965404  1.0000
  H   H85       1.0  0.05103702686959636  0.4749466903240555  0.28357043360116446  1.0000
  H   H86       1.0  0.9489629732329636  0.4749466903240555  0.7164295664413076  1.0000
  H   H87       1.0  0.5510370270057299  0.974946690206985  0.2835704335944891  1.0000
  H   H88       1.0  0.44896297309683014  0.974946690206985  0.7164295664479831  1.0000
  H   H89       1.0  0.034091826260819434  0.27885783629182637  0.3435468002662993  1.0000
  H   H90       1.0  0.9659081738417405  0.27885783629182637  0.6564531997761728  1.0000
  H   H91       1.0  0.5340918263969529  0.7788578361747558  0.3435468002596239  1.0000
  H   H92       1.0  0.4659081737056071  0.7788578361747558  0.6564531997828482  1.0000
  H   H93       1.0  0.8940485324559714  0.21033042231238275  0.33177973563043495  1.0000
  H   H94       1.0  0.10595146764658851  0.21033042231238275  0.6682202644120372  1.0000
  H   H95       1.0  0.39404853231983805  0.7103304221953121  0.3317797356371104  1.0000
  H   H96       1.0  0.605951467782722  0.7103304221953121  0.6682202644053618  1.0000
  H   H97       1.0  0.7746976327198293  0.33751707333007236  0.2691994185301431  1.0000
  H   H98       1.0  0.2253023673827307  0.33751707333007236  0.7308005815123291  1.0000
  H   H99       1.0  0.27469763258369584  0.8375170732130017  0.26919941853681856  1.0000
  H   H100      1.0  0.7253023675188641  0.8375170732130017  0.7308005815056536  1.0000
  H   H101      1.0  0.7280489379074879  0.744058446285578  0.07953599214838265  1.0000
  H   H102      1.0  0.271951062195072  0.744058446285578  0.9204640078940896  1.0000
  H   H103      1.0  0.22804893777135454  0.24405844640264865  0.07953599215505808  1.0000
  H   H104      1.0  0.7719510623312054  0.24405844640264865  0.9204640078874141  1.0000
  H   H105      1.0  0.6584598913160454  0.7371295697292832  0.8928587301261387  1.0000
  H   H106      1.0  0.34154010878651453  0.7371295697292832  0.10714126991633346  1.0000
  H   H107      1.0  0.15845989118352757  0.2371295698463538  0.8928587294218631  1.0000
  H   H108      1.0  0.8415401089190323  0.2371295698463538  0.10714127062060906  1.0000
  H   H109      1.0  0.6230430179864811  0.5499390979447238  0.806022532568392  1.0000
  H   H110      1.0  0.37695698211607875  0.5499390979447238  0.19397746747408012  1.0000
  H   H111      1.0  0.12304301785034776  0.04993909806179439  0.8060225325750675  1.0000
  H   H112      1.0  0.8769569822522123  0.04993909806179439  0.1939774674674047  1.0000
  H   H113      1.0  0.6580999024977193  0.37017984383924  0.9045662207953682  1.0000
  H   H114      1.0  0.3419000976048407  0.37017984383924  0.09543377924710389  1.0000
  H   H115      1.0  0.15809990236158583  0.870179844576189  0.9045662208020437  1.0000
  H   H116      1.0  0.8419000971255535  0.870179844576189  0.09543377898794143  1.0000
  H   H117      1.0  0.7276869275423216  0.3770812295066957  0.08976730523330895  1.0000
  H   H118      1.0  0.2723130725602384  0.3770812295066957  0.9102326948091631  1.0000
  H   H119      1.0  0.22768692740618818  0.8770812293896252  0.08976730523998439  1.0000
  H   H120      1.0  0.7723130726963718  0.8770812293896252  0.9102326948024878  1.0000
  H   H121      1.0  0.9295982443386729  0.8036173980283102  0.006594501327382931  1.0000
  H   H122      1.0  0.07040175576388703  0.8036173980283102  0.9934054987150892  1.0000
  H   H123      1.0  0.4295982442025395  0.30361739729136117  0.006594501334058287  1.0000
  H   H124      1.0  0.5704017552845997  0.30361739729136117  0.9934054984559267  1.0000
  H   H125      1.0  0.8599683312949084  0.6189088735469498  0.01394511984454941  1.0000
  H   H126      1.0  0.14003166880765167  0.6189088735469498  0.9860548801979228  1.0000
  H   H127      1.0  0.35996833115877486  0.11890887366402031  0.013945119851224829  1.0000
  H   H128      1.0  0.640031668943785  0.11890887366402031  0.9860548801912472  1.0000
  H   H129      1.0  0.9116532109021487  0.34904756940591897  0.9444864645413749  1.0000
  H   H130      1.0  0.08834678920041125  0.34904756940591897  0.05551353550109732  1.0000
  H   H131      1.0  0.41165321076601524  0.8490475692888484  0.9444864645480503  1.0000
  H   H132      1.0  0.5883467893365446  0.8490475692888484  0.055513535494421916  1.0000
  H   H133      1.0  0.856518976521137  0.4192030623147855  0.01497877600174932  1.0000
  H   H134      1.0  0.14348102358142303  0.4192030623147855  0.9850212240407229  1.0000
  H   H135      1.0  0.3565189763850035  0.9192030621977149  0.014978776008424708  1.0000
  H   H136      1.0  0.6434810237175563  0.9192030621977149  0.9850212240340475  1.0000
  H   H137      1.0  0.9532696804495385  0.3548722789809927  0.07728817184829874  1.0000
  H   H138      1.0  0.04673031965302135  0.3548722789809927  0.9227118281941734  1.0000
  H   H139      1.0  0.4532696803134052  0.8548722797179418  0.07728817185497416  1.0000
  H   H140      1.0  0.5467303197891548  0.8548722797179418  0.922711828187498  1.0000
  C   C1        1.0  0.6791835207068354  0.5550144036695908  0.43485314650068374  1.0000
  C   C2        1.0  0.32081647939572455  0.5550144036695908  0.5651468535417885  1.0000
  C   C3        1.0  0.179183520570702  0.05501440378666134  0.4348531465073591  1.0000
  C   C4        1.0  0.8208164795318579  0.05501440378666134  0.5651468535351131  1.0000
  C   C5        1.0  0.7444755328911931  0.5373878375814475  0.38046335821802335  1.0000
  C   C6        1.0  0.25552446721136685  0.5373878375814475  0.6195366418244488  1.0000
  C   C7        1.0  0.24447553275505968  0.03738783769851807  0.38046335822469873  1.0000
  C   C8        1.0  0.7555244673475001  0.03738783769851807  0.6195366418177733  1.0000
  C   C9        1.0  0.7067753329171964  0.5433080017739939  0.26340785075450923  1.0000
  C   C10       1.0  0.29322466656994284  0.5433080017739939  0.7365921490354759  1.0000
  C   C11       1.0  0.20677533339648368  0.043308001891064436  0.26340785101367176  1.0000
  C   C12       1.0  0.7932246667060763  0.043308001891064436  0.7365921490288005  1.0000
  C   C13       1.0  0.7727791588916041  0.5674624412537019  0.2112093032582779  1.0000
  C   C14       1.0  0.2272208412109559  0.5674624412537019  0.7887906967841943  1.0000
  C   C15       1.0  0.27277915875547065  0.06746244137077255  0.21120930326495327  1.0000
  C   C16       1.0  0.7272208413470893  0.06746244137077255  0.7887906967775189  1.0000
  C   C17       1.0  0.8840236050847889  0.5780519683573935  0.4889027397586382  1.0000
  C   C18       1.0  0.1159763944023503  0.5780519683573935  0.5110972600313469  1.0000
  C   C19       1.0  0.38402360556769183  0.07805196847446408  0.4889027393068497  1.0000
  C   C20       1.0  0.6159763945348682  0.07805196847446408  0.5110972607356224  1.0000
  C   C21       1.0  0.5677246553065799  0.5935760220437054  0.15899196575626498  1.0000
  C   C22       1.0  0.43227534479598  0.5935760220437054  0.8410080342862072  1.0000
  C   C23       1.0  0.06772465517044648  0.09357602216077603  0.1589919657629404  1.0000
  C   C24       1.0  0.9322753443166928  0.09357602216077603  0.8410080340270447  1.0000
  C   C25       1.0  0.7197684587240228  0.5337156868069893  0.5477541056846843  1.0000
  C   C26       1.0  0.2802315407631164  0.5337156868069893  0.45224589410530075  1.0000
  C   C27       1.0  0.21976845920331015  0.03371568607004037  0.5477541059438468  1.0000
  C   C28       1.0  0.7802315408992497  0.03371568607004037  0.45224589409862537  1.0000
  C   C29       1.0  0.7390043982776268  0.6257978110256598  0.6150316946098033  1.0000
  C   C30       1.0  0.2609956018249332  0.6257978110256598  0.38496830543266874  1.0000
  C   C31       1.0  0.23900439814149335  0.1257978111427304  0.6150316946164788  1.0000
  C   C32       1.0  0.7609956019610666  0.1257978111427304  0.3849683054259933  1.0000
  C   C33       1.0  0.7789323485523587  0.6073687227802572  0.7179526430527493  1.0000
  C   C34       1.0  0.2210676515502012  0.6073687227802572  0.2820473569897228  1.0000
  C   C35       1.0  0.27893234841622533  0.10736872204330832  0.7179526430594247  1.0000
  C   C36       1.0  0.7210676516863345  0.10736872204330832  0.2820473569830474  1.0000
  C   C37       1.0  0.7991067153718179  0.4968452056027206  0.7546281859349974  1.0000
  C   C38       1.0  0.20089328473074203  0.4968452056027206  0.24537181410747486  1.0000
  C   C39       1.0  0.2991067152356845  0.99684520548565  0.7546281859416728  1.0000
  C   C40       1.0  0.7008932848668754  0.99684520548565  0.24537181410079947  1.0000
  C   C41       1.0  0.7796572019207186  0.40450786789417986  0.6879687718862381  1.0000
  C   C42       1.0  0.22034279818184124  0.40450786789417986  0.3120312281562341  1.0000
  C   C43       1.0  0.2796572017845853  0.9045078677771093  0.6879687718929135  1.0000
  C   C44       1.0  0.7203427983179747  0.9045078677771093  0.3120312281495587  1.0000
  C   C45       1.0  0.7402587625586472  0.42273400437517084  0.5850868327102909  1.0000
  C   C46       1.0  0.25974123754391265  0.42273400437517084  0.41491316733218137  1.0000
  C   C47       1.0  0.24025876242251384  0.9227340042581003  0.5850868327169663  1.0000
  C   C48       1.0  0.7597412376800461  0.9227340042581003  0.4149131673255059  1.0000
  C   C49       1.0  0.6054488133504203  0.4747639301435155  0.39266974950440336  1.0000
  C   C50       1.0  0.39455118675213957  0.4747639301435155  0.6073302505380689  1.0000
  C   C51       1.0  0.10544881321428695  0.9747639308804645  0.39266974951107875  1.0000
  C   C52       1.0  0.894551186888273  0.9747639308804645  0.6073302505313934  1.0000
  C   C53       1.0  0.6122447803524579  0.365752093302847  0.3549633760810521  1.0000
  C   C54       1.0  0.3877552197501021  0.365752093302847  0.64503662396142  1.0000
  C   C55       1.0  0.11224478021632446  0.8657520931857764  0.35496337608772743  1.0000
  C   C56       1.0  0.8877552198862354  0.8657520931857764  0.6450366239547446  1.0000
  C   C57       1.0  0.5428924808876477  0.2971742648421995  0.31428713561007376  1.0000
  C   C58       1.0  0.4571075185994915  0.2971742648421995  0.6857128641799112  1.0000
  C   C59       1.0  0.042892481366935055  0.7971742647251289  0.3142871358692363  1.0000
  C   C60       1.0  0.9571075187356249  0.7971742647251289  0.6857128641732358  1.0000
  C   C61       1.0  0.4658342828224644  0.335129975998515  0.3135973949685789  1.0000
  C   C62       1.0  0.5341657172800955  0.335129975998515  0.6864026050738933  1.0000
  C   C63       1.0  0.9658342829585977  0.8351299758814444  0.31359739496190353  1.0000
  C   C64       1.0  0.03416571714396214  0.8351299758814444  0.6864026050805687  1.0000
  C   C65       1.0  0.45898077326742115  0.44170378776068164  0.3548733024734486  1.0000
  C   C66       1.0  0.5410192268351387  0.44170378776068164  0.6451266975690235  1.0000
  C   C67       1.0  0.958980773399939  0.9417037876436111  0.35487330317772414  1.0000
  C   C68       1.0  0.04101922670262099  0.9417037876436111  0.645126696864748  1.0000
  C   C69       1.0  0.5280736690907089  0.5112215936768039  0.3930050808497833  1.0000
  C   C70       1.0  0.4719263303964302  0.5112215936768039  0.6069949189402016  1.0000
  C   C71       1.0  0.028073669569996296  0.011221593793874407  0.39300508110894583  1.0000
  C   C72       1.0  0.9719263305325636  0.011221593793874407  0.6069949189335263  1.0000
  C   C73       1.0  0.8445426494862706  0.4825527061595443  0.2457419229008911  1.0000
  C   C74       1.0  0.15545735061628937  0.4825527061595443  0.7542580771415811  1.0000
  C   C75       1.0  0.3445426493501372  0.9825527060424737  0.2457419229075665  1.0000
  C   C76       1.0  0.6554573507524227  0.9825527060424737  0.7542580771349057  1.0000
  C   C77       1.0  0.9229996788497593  0.5187633923673601  0.2492235796296359  1.0000
  C   C78       1.0  0.07700032125280058  0.5187633923673601  0.7507764204128363  1.0000
  C   C79       1.0  0.422999678713626  0.018763392484430774  0.24922357963631134  1.0000
  C   C80       1.0  0.5770003213889341  0.018763392484430774  0.7507764204061609  1.0000
  C   C81       1.0  0.9905335908794329  0.4456666929019883  0.2822974237179308  1.0000
  C   C82       1.0  0.009466409223127192  0.4456666929019883  0.7177025763245415  1.0000
  C   C83       1.0  0.49053359074329933  0.9456666927849177  0.2822974237246062  1.0000
  C   C84       1.0  0.5094664093592606  0.9456666927849177  0.717702576317866  1.0000
  C   C85       1.0  0.9810428309898076  0.33484002526404916  0.31371899175830087  1.0000
  C   C86       1.0  0.018957168497331697  0.33484002526404916  0.6862810080316841  1.0000
  C   C87       1.0  0.4810428314690948  0.8348400251469786  0.3137189920174634  1.0000
  C   C88       1.0  0.5189571686334651  0.8348400251469786  0.6862810080250088  1.0000
  C   C89       1.0  0.90290004780836  0.29682442086370814  0.3084262300719272  1.0000
  C   C90       1.0  0.09709995229419996  0.29682442086370814  0.691573769970545  1.0000
  C   C91       1.0  0.4029000476722266  0.7968244216006571  0.3084262300786027  1.0000
  C   C92       1.0  0.5970999518149127  0.7968244216006571  0.6915737697113824  1.0000
  C   C93       1.0  0.8352013756311897  0.3697978759159309  0.2736111366600462  1.0000
  C   C94       1.0  0.1647986238559496  0.3697978759159309  0.7263888631299389  1.0000
  C   C95       1.0  0.3352013761104769  0.8697978757988604  0.2736111369192087  1.0000
  C   C96       1.0  0.664798623992083  0.8697978757988604  0.7263888631232635  1.0000
  C   C97       1.0  0.7321151469972743  0.5616771267457691  0.09690844405652732  1.0000
  C   C98       1.0  0.2678848531089012  0.5616771267457691  0.9030915552749937  1.0000
  C   C99       1.0  0.23211514686114096  0.061677126862839604  0.09690844406320276  1.0000
  C   C100      1.0  0.767884853241419  0.061677126862839604  0.9030915559792694  1.0000
  C   C101      1.0  0.7126268266880497  0.6625935475861854  0.04068486749875196  1.0000
  C   C102      1.0  0.28737317341451046  0.6625935475861854  0.9593151325437204  1.0000
  C   C103      1.0  0.21262682655191617  0.16259354770325593  0.04068486750542734  1.0000
  C   C104      1.0  0.7873731735506438  0.16259354770325593  0.9593151325370448  1.0000
  C   C105      1.0  0.6735716087856367  0.6583000702712194  0.9363655287193958  1.0000
  C   C106      1.0  0.32642839131692325  0.6583000702712194  0.0636344713230763  1.0000
  C   C107      1.0  0.17357160864950333  0.15830007038829  0.9363655287260714  1.0000
  C   C108      1.0  0.8264283914530566  0.15830007038829  0.06363447131640089  1.0000
  C   C109      1.0  0.6535567827897236  0.5534638774001429  0.8873037344683913  1.0000
  C   C110      1.0  0.3464432173128362  0.5534638774001429  0.11269626557408091  1.0000
  C   C111      1.0  0.1535567826535903  0.05346387751721352  0.8873037344750666  1.0000
  C   C112      1.0  0.8464432174489697  0.05346387751721352  0.11269626556740553  1.0000
  C   C113      1.0  0.6728878191775796  0.45234751948427443  0.9429012439423935  1.0000
  C   C114      1.0  0.3271121809249804  0.45234751948427443  0.05709875610007863  1.0000
  C   C115      1.0  0.17288781904144615  0.9523475193672039  0.9429012439490689  1.0000
  C   C116      1.0  0.8271121810611137  0.9523475193672039  0.057098756093403244  1.0000
  C   C117      1.0  0.7120109688167657  0.45654303136433416  0.047116685323118794  1.0000
  C   C118      1.0  0.28798903128579423  0.45654303136433416  0.9528833147193534  1.0000
  C   C119      1.0  0.21201096868063235  0.9565430312472636  0.04711668532979418  1.0000
  C   C120      1.0  0.7879890314219277  0.9565430312472636  0.9528833147126781  1.0000
  C   C121      1.0  0.9605103172844955  0.723039497682524  0.003615690599674545  1.0000
  C   C122      1.0  0.03948968281806436  0.723039497682524  0.9963843094427977  1.0000
  C   C123      1.0  0.46051031714836216  0.22303949779959448  0.003615690606349901  1.0000
  C   C124      1.0  0.539489682338777  0.22303949779959448  0.9963843091836352  1.0000
  C   C125      1.0  0.9215565289273103  0.619377449299366  0.00763305743953986  1.0000
  C   C126      1.0  0.07844347055982888  0.619377449299366  0.9923669423504451  1.0000
  C   C127      1.0  0.42155652940659766  0.1193774494164366  0.007633057698702385  1.0000
  C   C128      1.0  0.5784434706959622  0.1193774494164366  0.9923669423437698  1.0000
  C   C129      1.0  0.9602710855587154  0.5148935095958898  0.004270211383653988  1.0000
  C   C130      1.0  0.03972891454384452  0.5148935095958898  0.9957297886588182  1.0000
  C   C131      1.0  0.46027108542258205  0.01489350971296038  0.004270211390329376  1.0000
  C   C132      1.0  0.539728914679978  0.01489350971296038  0.9957297886521428  1.0000
  C   C133      1.0  0.918057692778301  0.4042408364819811  0.010204142127222825  1.0000
  C   C134      1.0  0.08194230732425897  0.4042408364819811  0.9897958579152494  1.0000
  C   C135      1.0  0.4180576926421675  0.9042408363649105  0.01020414213389815  1.0000
  C   C136      1.0  0.5819423068449717  0.9042408363649105  0.9897958576560869  1.0000
  O   O1        1.0  0.6529692728264263  0.671472751971172  0.4222946760550084  1.0000
  O   O2        1.0  0.3470307272761337  0.671472751971172  0.5777053239874638  1.0000
  O   O3        1.0  0.1529692733057136  0.1714727520882425  0.42229467631417095  1.0000
  O   O4        1.0  0.8470307267968463  0.1714727520882425  0.5777053237283012  1.0000
  O   O5        1.0  0.8090953524437174  0.6204582904450213  0.41711741434122623  1.0000
  O   O6        1.0  0.19090464704342178  0.6204582904450213  0.5828825854487588  1.0000
  O   O7        1.0  0.3090953529230048  0.12045829056209185  0.41711741460038876  1.0000
  O   O8        1.0  0.6909046471795552  0.12045829056209185  0.5828825854420834  1.0000
  O   O9        1.0  0.6436051639733822  0.62938293293938  0.23323540898245837  1.0000
  O   O10       1.0  0.3563948361291779  0.62938293293938  0.7667645910600138  1.0000
  O   O11       1.0  0.14360516383724867  0.12938293305645054  0.23323540898913375  1.0000
  O   O12       1.0  0.8563948356498906  0.12938293305645054  0.7667645908008514  1.0000
  O   O13       1.0  0.8018598865982312  0.6814377943701143  0.23530570929323916  1.0000
  O   O14       1.0  0.19814011350432878  0.6814377943701143  0.764694290749233  1.0000
  O   O15       1.0  0.30185988646209777  0.18143779448718497  0.2353057092999145  1.0000
  O   O16       1.0  0.6981401130250414  0.18143779448718497  0.7646942904900705  1.0000
