data_image0
_chemical_formula_structural       H128C136O16
_chemical_formula_sum              "H128 C136 O16"
_cell_length_a       17.035767640307995
_cell_length_b       11.923356514186628
_cell_length_c       13.924074679534778
_cell_angle_alpha    90.0
_cell_angle_beta     109.14153430761547
_cell_angle_gamma    90.0

_space_group_name_H-M_alt    "P 1"
_space_group_IT_number       1

loop_
  _space_group_symop_operation_xyz
  'x, y, z'

loop_
  _atom_site_type_symbol
  _atom_site_label
  _atom_site_symmetry_multiplicity
  _atom_site_fract_x
  _atom_site_fract_y
  _atom_site_fract_z
  _atom_site_occupancy
  H   H1        1.0  0.6432475128421276  0.6823157707580277  0.3577657597235345  1.0000
  H   H2        1.0  0.35675248731948395  0.6823157707580277  0.6422342403060749  1.0000
  H   H3        1.0  0.14324751285519163  0.1823157713529369  0.3577657601149402  1.0000
  H   H4        1.0  0.8567524873064198  0.1823157713529369  0.6422342399146691  1.0000
  H   H5        1.0  0.825174708624807  0.6792789320996419  0.31931321233436866  1.0000
  H   H6        1.0  0.17482529091547563  0.6792789320996419  0.6806867874395067  1.0000
  H   H7        1.0  0.32517470864346765  0.17927893185586094  0.3193132120098682  1.0000
  H   H8        1.0  0.6748252908968151  0.17927893185586094  0.6806867877640072  1.0000
  H   H9        1.0  0.7753645529783209  0.45377532606380244  0.40321002992929245  1.0000
  H   H10       1.0  0.22463544718329076  0.45377532606380244  0.596789970100317  1.0000
  H   H11       1.0  0.27536455299138485  0.9537753263075833  0.4032100303206982  1.0000
  H   H12       1.0  0.7246354471702265  0.9537753263075833  0.5967899697089112  1.0000
  H   H13       1.0  0.6795849993880221  0.4670975226961856  0.24070287866805498  1.0000
  H   H14       1.0  0.32041500077358936  0.4670975226961856  0.7592971213615545  1.0000
  H   H15       1.0  0.17958499940108624  0.9670975221012764  0.24070287905946067  1.0000
  H   H16       1.0  0.8204150007605253  0.9670975221012764  0.7592971209701487  1.0000
  H   H17       1.0  0.9140724347199943  0.5073201311059381  0.4634271340650444  1.0000
  H   H18       1.0  0.08592756482028847  0.5073201311059381  0.536572865708831  1.0000
  H   H19       1.0  0.41407243473865485  0.007320130862157147  0.46342713374054384  1.0000
  H   H20       1.0  0.5859275648016279  0.007320130862157147  0.5365728660333314  1.0000
  H   H21       1.0  0.8771435483819136  0.5446151427472413  0.5660773009593457  1.0000
  H   H22       1.0  0.12285645177969792  0.5446151427472413  0.4339226990702636  1.0000
  H   H23       1.0  0.37714354840057424  0.04461514334215048  0.5660773006348453  1.0000
  H   H24       1.0  0.6228564517610373  0.04461514334215048  0.43392269939476413  1.0000
  H   H25       1.0  0.931968751557337  0.645557817619704  0.5178720577213022  1.0000
  H   H26       1.0  0.06803124798294555  0.645557817619704  0.48212794205257326  1.0000
  H   H27       1.0  0.43196875157040127  0.14555781737592308  0.5178720581127078  1.0000
  H   H28       1.0  0.5680312479698814  0.14555781737592308  0.4821279416611675  1.0000
  H   H29       1.0  0.5321013836445496  0.6777481207061988  0.1516906302981813  1.0000
  H   H30       1.0  0.46789861651706194  0.6777481207061988  0.848309369731428  1.0000
  H   H31       1.0  0.03210138365761368  0.17774812046241792  0.15169063068958702  1.0000
  H   H32       1.0  0.9678986165039978  0.17774812046241792  0.8483093693400223  1.0000
  H   H33       1.0  0.5431630473108873  0.5327171675561777  0.1892784103053295  1.0000
  H   H34       1.0  0.45683695222939535  0.5327171675561777  0.8107215894685459  1.0000
  H   H35       1.0  0.04316304732395147  0.032717168151086794  0.18927841069673523  1.0000
  H   H36       1.0  0.9568369522163312  0.032717168151086794  0.8107215890771401  1.0000
  H   H37       1.0  0.5813948302436583  0.5819399329160573  0.09114047984292278  1.0000
  H   H38       1.0  0.4186051699179532  0.5819399329160573  0.9088595201866866  1.0000
  H   H39       1.0  0.08139483026231897  0.08193993351096637  0.09114047951842229  1.0000
  H   H40       1.0  0.9186051698992926  0.08193993351096637  0.9088595205111871  1.0000
  H   H41       1.0  0.729144039969203  0.701520163390887  0.5946037101663518  1.0000
  H   H42       1.0  0.2708559601924085  0.701520163390887  0.4053962898632576  1.0000
  H   H43       1.0  0.22914403998786365  0.20152016314710613  0.5946037098418514  1.0000
  H   H44       1.0  0.7708559601737479  0.20152016314710613  0.40539629018775813  1.0000
  H   H45       1.0  0.8004201394846493  0.6654997148293607  0.7812688083184522  1.0000
  H   H46       1.0  0.19957986067696218  0.6654997148293607  0.21873119171115715  1.0000
  H   H47       1.0  0.30042013949771346  0.16549971458557977  0.7812688087098579  1.0000
  H   H48       1.0  0.699579860663898  0.16549971458557977  0.21873119131975147  1.0000
  H   H49       1.0  0.8318311841430419  0.46970200658988204  0.842504802129751  1.0000
  H   H50       1.0  0.16816881601297307  0.46970200658988204  0.1574951986157647  1.0000
  H   H51       1.0  0.3318311841617026  0.9697020068336629  0.8425048018052504  1.0000
  H   H52       1.0  0.668168815999909  0.9697020068336629  0.15749519822435898  1.0000
  H   H53       1.0  0.7923299464506571  0.31148774638928556  0.7205962939814452  1.0000
  H   H54       1.0  0.20767005308962552  0.31148774638928556  0.2794037057924301  1.0000
  H   H55       1.0  0.29232994646372124  0.8114877457943764  0.7205962943728509  1.0000
  H   H56       1.0  0.7076700530765614  0.8114877457943764  0.2794037054010244  1.0000
  H   H57       1.0  0.7227223515349745  0.3470446543367723  0.5377050005509622  1.0000
  H   H58       1.0  0.27727764862663684  0.3470446543367723  0.4622949994786473  1.0000
  H   H59       1.0  0.2227223515536353  0.8470446545805531  0.5377050002264616  1.0000
  H   H60       1.0  0.7772776486079762  0.8470446545805531  0.46229499980314775  1.0000
  H   H61       1.0  0.6762272736650116  0.33608855654295305  0.35906302624921754  1.0000
  H   H62       1.0  0.3237727264965999  0.33608855654295305  0.6409369737803918  1.0000
  H   H63       1.0  0.17622727367807575  0.836088555948044  0.3590630266406233  1.0000
  H   H64       1.0  0.8237727264779392  0.836088555948044  0.6409369741048923  1.0000
  H   H65       1.0  0.5534931146967013  0.22078947793498768  0.2785269037306066  1.0000
  H   H66       1.0  0.44650688546491024  0.22078947793498768  0.7214730962990027  1.0000
  H   H67       1.0  0.05349311471536193  0.7207894781787686  0.27852690340610614  1.0000
  H   H68       1.0  0.9465068854462495  0.7207894781787686  0.7214730966235031  1.0000
  H   H69       1.0  0.4124898639744619  0.2872274653471287  0.27090970874047793  1.0000
  H   H70       1.0  0.5875101361871496  0.2872274653471287  0.7290902912891315  1.0000
  H   H71       1.0  0.9124898639613978  0.7872274655909095  0.2709097083490722  1.0000
  H   H72       1.0  0.08751013620021374  0.7872274655909095  0.7290902916805372  1.0000
  H   H73       1.0  0.39796634214562693  0.47093792451135547  0.3491105722028425  1.0000
  H   H74       1.0  0.6020336580159846  0.47093792451135547  0.650889427826767  1.0000
  H   H75       1.0  0.8979663421269662  0.9709379247551364  0.34911057252734295  1.0000
  H   H76       1.0  0.10203365803464519  0.9709379247551364  0.6508894275022663  1.0000
  H   H77       1.0  0.5224413042710767  0.591823237156754  0.4235486896601296  1.0000
  H   H78       1.0  0.47755869589053473  0.591823237156754  0.5764513103694798  1.0000
  H   H79       1.0  0.022441304284140876  0.09182323691297312  0.42354869005153534  1.0000
  H   H80       1.0  0.9775586958774706  0.09182323691297312  0.576451309978074  1.0000
  H   H81       1.0  0.939362199637894  0.5940491867011144  0.2353700316357044  1.0000
  H   H82       1.0  0.06063780052371747  0.5940491867011144  0.7646299683939051  1.0000
  H   H83       1.0  0.43936219965095813  0.0940491864573335  0.23537003202711015  1.0000
  H   H84       1.0  0.5606378005050567  0.0940491864573335  0.7646299687184055  1.0000
  H   H85       1.0  0.054549858122743385  0.45516296804031425  0.28501791558709144  1.0000
  H   H86       1.0  0.9454501420388681  0.45516296804031425  0.7149820844425181  1.0000
  H   H87       1.0  0.5545498581096792  0.9551629682840951  0.28501791519568564  1.0000
  H   H88       1.0  0.44545014205193223  0.9551629682840951  0.7149820848339237  1.0000
  H   H89       1.0  0.028873622660563956  0.26260478886750754  0.33875211447589326  1.0000
  H   H90       1.0  0.9711263768797187  0.26260478886750754  0.6612478852979821  1.0000
  H   H91       1.0  0.5288736226474997  0.7626047891112885  0.3387521140844875  1.0000
  H   H92       1.0  0.47112637689278286  0.7626047891112885  0.6612478856893877  1.0000
  H   H93       1.0  0.8852913815048199  0.20717575852578715  0.3283312603013243  1.0000
  H   H94       1.0  0.11470861865679158  0.20717575852578715  0.671668739728285  1.0000
  H   H95       1.0  0.38529138151788406  0.7071757587695681  0.3283312606927301  1.0000
  H   H96       1.0  0.6147086186437275  0.7071757587695681  0.6716687393368794  1.0000
  H   H97       1.0  0.7701847576280628  0.34081786828775473  0.2684305775288757  1.0000
  H   H98       1.0  0.22981524253354874  0.34081786828775473  0.7315694225007336  1.0000
  H   H99       1.0  0.2701847576411269  0.8408178676928456  0.2684305779202814  1.0000
  H   H100      1.0  0.7298152425204846  0.8408178676928456  0.7315694221093281  1.0000
  H   H101      1.0  0.7288794015909177  0.7476047595653129  0.09391586948604035  1.0000
  H   H102      1.0  0.27112059857069376  0.7476047595653129  0.9060841305435692  1.0000
  H   H103      1.0  0.22887940160398185  0.24760475932153198  0.09391586987744609  1.0000
  H   H104      1.0  0.7711205985576295  0.24760475932153198  0.9060841301521633  1.0000
  H   H105      1.0  0.6548694014346829  0.7519376317677444  0.9062113174947267  1.0000
  H   H106      1.0  0.3451305987269287  0.7519376317677444  0.09378868253488269  1.0000
  H   H107      1.0  0.15486940144774697  0.2519376315239635  0.9062113178861325  1.0000
  H   H108      1.0  0.8451305987138645  0.2519376315239635  0.09378868214347695  1.0000
  H   H109      1.0  0.6223318147216632  0.5733511509000071  0.8090696864270143  1.0000
  H   H110      1.0  0.37766818481861947  0.5733511509000071  0.19093031334686103  1.0000
  H   H111      1.0  0.12233181474032385  0.07335115149491626  0.8090696861025138  1.0000
  H   H112      1.0  0.8776681854212877  0.07335115149491626  0.1909303139270956  1.0000
  H   H113      1.0  0.6643214077165049  0.3918548165896828  0.8977904932586661  1.0000
  H   H114      1.0  0.33567859244510667  0.3918548165896828  0.10220950677094329  1.0000
  H   H115      1.0  0.16432140773516551  0.8918548168334637  0.8977904929341655  1.0000
  H   H116      1.0  0.8356785924264459  0.8918548168334637  0.10220950709544377  1.0000
  H   H117      1.0  0.737555426767045  0.38793303668279466  0.08438840060076039  1.0000
  H   H118      1.0  0.26244457339456645  0.38793303668279466  0.9156115994288491  1.0000
  H   H119      1.0  0.23755542678010916  0.8879330369265757  0.08438840099216612  1.0000
  H   H120      1.0  0.7624445733815024  0.8879330369265757  0.9156115990374434  1.0000
  H   H121      1.0  0.38114691713810606  0.2130773265881257  0.030770742342030533  1.0000
  H   H122      1.0  0.6188530830235054  0.2130773265881257  0.9692292576875788  1.0000
  H   H123      1.0  0.8811469171250419  0.7130773268319066  0.030770741950624774  1.0000
  H   H124      1.0  0.11885308303656955  0.7130773268319066  0.9692292580789846  1.0000
  H   H125      1.0  0.38141907845786444  0.008803334017154513  0.031238060853472298  1.0000
  H   H126      1.0  0.6185809210824182  0.008803334017154513  0.968761938920403  1.0000
  H   H127      1.0  0.8814190784392039  0.5088033334222454  0.03123806117797283  1.0000
  H   H128      1.0  0.1185809211010789  0.5088033334222454  0.9687619385959025  1.0000
  C   C1        1.0  0.6817186460731446  0.5525614764735933  0.44070444743198717  1.0000
  C   C2        1.0  0.3182813534671381  0.5525614764735933  0.5592955523418882  1.0000
  C   C3        1.0  0.18171864609180524  0.05256147622981246  0.4407044471074867  1.0000
  C   C4        1.0  0.8182813534484774  0.05256147622981246  0.5592955526663886  1.0000
  C   C5        1.0  0.7480337458568158  0.5380151388048642  0.38610321175227863  1.0000
  C   C6        1.0  0.2519662543047958  0.5380151388048642  0.6138967882773307  1.0000
  C   C7        1.0  0.24803374586987983  0.038015138561083316  0.38610321214368426  1.0000
  C   C8        1.0  0.7519662542917317  0.038015138561083316  0.6138967878859252  1.0000
  C   C9        1.0  0.710672555878461  0.5472737967900255  0.2684439927749856  1.0000
  C   C10       1.0  0.28932744366182167  0.5472737967900255  0.7315560069988898  1.0000
  C   C11       1.0  0.21067255589712167  0.047273797384934715  0.26844399245048506  1.0000
  C   C12       1.0  0.789327443643161  0.047273797384934715  0.7315560073233903  1.0000
  C   C13       1.0  0.7784780551589251  0.5677308106946072  0.21684396381448298  1.0000
  C   C14       1.0  0.22152194500268646  0.5677308106946072  0.7831560362151264  1.0000
  C   C15       1.0  0.2784780551775857  0.06773081128951636  0.21684396348998247  1.0000
  C   C16       1.0  0.7215219449840258  0.06773081128951636  0.783156036539627  1.0000
  C   C17       1.0  0.8883049369466268  0.5752305277326413  0.49747610852226765  1.0000
  C   C18       1.0  0.11169506259365586  0.5752305277326413  0.5025238912516078  1.0000
  C   C19       1.0  0.3883049369652875  0.07523052832755042  0.49747610819776705  1.0000
  C   C20       1.0  0.6116950625749953  0.07523052832755042  0.5025238915761083  1.0000
  C   C21       1.0  0.5720559407424873  0.6036252108570765  0.1631732445081937  1.0000
  C   C22       1.0  0.42794405879779535  0.6036252108570765  0.8368267552656816  1.0000
  C   C23       1.0  0.07205594075555147  0.10362521061329566  0.16317324489959945  1.0000
  C   C24       1.0  0.9279440587847312  0.10362521061329566  0.8368267548742759  1.0000
  C   C25       1.0  0.7220463284837889  0.5281805079389265  0.554100603723222  1.0000
  C   C26       1.0  0.2779536716778226  0.5281805079389265  0.44589939630638736  1.0000
  C   C27       1.0  0.22204632849685305  0.028180508533835556  0.5541006041146277  1.0000
  C   C28       1.0  0.7779536716647584  0.028180508533835556  0.44589939591498157  1.0000
  C   C29       1.0  0.7439779368826055  0.6168056772645863  0.6236951231183331  1.0000
  C   C30       1.0  0.25602206327900606  0.6168056772645863  0.37630487691127623  1.0000
  C   C31       1.0  0.24397793689566954  0.11680567702080545  0.6236951235097389  1.0000
  C   C32       1.0  0.7560220632603454  0.11680567702080545  0.3763048772357767  1.0000
  C   C33       1.0  0.7834998031788964  0.5961501362089308  0.7271655051145076  1.0000
  C   C34       1.0  0.21650019698271494  0.5961501362089308  0.27283449491510176  1.0000
  C   C35       1.0  0.2834998031975572  0.0961501359651499  0.7271655047900071  1.0000
  C   C36       1.0  0.7165001969640543  0.0961501359651499  0.27283449523960224  1.0000
  C   C37       1.0  0.801239079597109  0.48628725335028133  0.7619579186751964  1.0000
  C   C38       1.0  0.19876092056450245  0.48628725335028133  0.23804208135441302  1.0000
  C   C39       1.0  0.3012390796157697  0.9862872527553722  0.7619579183506959  1.0000
  C   C40       1.0  0.6987609205458418  0.9862872527553722  0.2380420816789135  1.0000
  C   C41       1.0  0.7793047631828208  0.3972907775057958  0.6930593718457325  1.0000
  C   C42       1.0  0.22069523697879065  0.3972907775057958  0.3069406281838769  1.0000
  C   C43       1.0  0.2793047632014815  0.8972907769108867  0.6930593715212319  1.0000
  C   C44       1.0  0.7206952369601299  0.8972907769108867  0.3069406285083774  1.0000
  C   C45       1.0  0.7399312784009558  0.41802392506419234  0.5897579304252081  1.0000
  C   C46       1.0  0.26006872176065565  0.41802392506419234  0.4102420696044013  1.0000
  C   C47       1.0  0.23993127841402  0.9180239244692833  0.5897579308166138  1.0000
  C   C48       1.0  0.7600687217475915  0.9180239244692833  0.4102420692129956  1.0000
  C   C49       1.0  0.607509933379477  0.47434805235175187  0.3948666183507372  1.0000
  C   C50       1.0  0.3924900667821345  0.47434805235175187  0.6051333816788722  1.0000
  C   C51       1.0  0.10750993339813764  0.9743480525955327  0.3948666180262367  1.0000
  C   C52       1.0  0.892490066763474  0.9743480525955327  0.6051333820033726  1.0000
  C   C53       1.0  0.6154452605662448  0.36828588281959573  0.3555391076040045  1.0000
  C   C54       1.0  0.38455473959536673  0.36828588281959573  0.6444608924256049  1.0000
  C   C55       1.0  0.11544526057930889  0.8682858830633766  0.3555391079954103  1.0000
  C   C56       1.0  0.8845547395823027  0.8682858830633766  0.6444608920341992  1.0000
  C   C57       1.0  0.5456386173410879  0.3018345560428379  0.3105843424329073  1.0000
  C   C58       1.0  0.45436138282052363  0.3018345560428379  0.6894156575967021  1.0000
  C   C59       1.0  0.04563861735974848  0.8018345562866188  0.31058434210840674  1.0000
  C   C60       1.0  0.9543613828018629  0.8018345562866188  0.6894156579212025  1.0000
  C   C61       1.0  0.466920293332869  0.33894621075797715  0.30650214428386646  1.0000
  C   C62       1.0  0.5330797068287425  0.33894621075797715  0.693497855745743  1.0000
  C   C63       1.0  0.9669202933142084  0.838946211001758  0.30650214460836694  1.0000
  C   C64       1.0  0.03307970684740312  0.838946211001758  0.6934978554212424  1.0000
  C   C65       1.0  0.458846953056841  0.44261139585324294  0.34908059851331386  1.0000
  C   C66       1.0  0.5411530471047704  0.44261139585324294  0.6509194015162956  1.0000
  C   C67       1.0  0.9588469530437769  0.9426113960970238  0.3490805981219081  1.0000
  C   C68       1.0  0.041153047117834636  0.9426113960970238  0.6509194019077014  1.0000
  C   C69       1.0  0.5284493545516965  0.5099970425915608  0.3919368956872289  1.0000
  C   C70       1.0  0.471550645609915  0.5099970425915608  0.6080631043423805  1.0000
  C   C71       1.0  0.02844935457035714  0.009997043186469823  0.3919368953627284  1.0000
  C   C72       1.0  0.9715506455912544  0.009997043186469823  0.6080631046668811  1.0000
  C   C73       1.0  0.847023164943061  0.478658356244691  0.24940221863210219  1.0000
  C   C74       1.0  0.1529768352185506  0.478658356244691  0.7505977813975073  1.0000
  C   C75       1.0  0.34702316495612506  0.9786583564884719  0.24940221902350787  1.0000
  C   C76       1.0  0.6529768352054864  0.9786583564884719  0.7505977810061015  1.0000
  C   C77       1.0  0.9278546452829595  0.5085098632072236  0.25446561121606237  1.0000
  C   C78       1.0  0.07214535487865213  0.5085098632072236  0.745534388813547  1.0000
  C   C79       1.0  0.42785464530162004  0.008509862963442697  0.25446561089156183  1.0000
  C   C80       1.0  0.5721453548599914  0.008509862963442697  0.7455343891380475  1.0000
  C   C81       1.0  0.992536534755645  0.4308132776108986  0.28374406883076436  1.0000
  C   C82       1.0  0.007463465400369937  0.4308132776108986  0.7162559319147512  1.0000
  C   C83       1.0  0.4925365341529769  0.9308132778546796  0.2837440682505298  1.0000
  C   C84       1.0  0.5074634653873059  0.9308132778546796  0.7162559315233455  1.0000
  C   C85       1.0  0.9780806450132311  0.32232094674241707  0.3118756200213739  1.0000
  C   C86       1.0  0.0219193551483804  0.32232094674241707  0.6881243800082354  1.0000
  C   C87       1.0  0.47808064503189174  0.822320946986198  0.31187561969687344  1.0000
  C   C88       1.0  0.5219193551297198  0.822320946986198  0.6881243803327359  1.0000
  C   C89       1.0  0.8979017333253417  0.2913754793682773  0.306722558580308  1.0000
  C   C90       1.0  0.1020982668362697  0.2913754793682773  0.6932774414493015  1.0000
  C   C91       1.0  0.3979017333440025  0.7913754796120582  0.30672255825580746  1.0000
  C   C92       1.0  0.6020982668176091  0.7913754796120582  0.6932774417738019  1.0000
  C   C93       1.0  0.832647419956165  0.3682167143770504  0.27398777844823885  1.0000
  C   C94       1.0  0.1673525795841177  0.3682167143770504  0.7260122213256366  1.0000
  C   C95       1.0  0.3326474199692291  0.8682167146208312  0.27398777883964454  1.0000
  C   C96       1.0  0.6673525795710534  0.8682167146208312  0.7260122209342308  1.0000
  C   C97       1.0  0.7377399126485562  0.5681568559943477  0.10137385435001343  1.0000
  C   C98       1.0  0.2622600875130553  0.5681568559943477  0.898626145679596  1.0000
  C   C99       1.0  0.23773991266162034  0.0681568565892569  0.10137385474141913  1.0000
  C   C100      1.0  0.7622600874999912  0.0681568565892569  0.8986261452881903  1.0000
  C   C101      1.0  0.7149901376871185  0.6703063286324294  0.05016951156995367  1.0000
  C   C102      1.0  0.28500986247449295  0.6703063286324294  0.9498304884596557  1.0000
  C   C103      1.0  0.21499013770018272  0.17030632838864856  0.050169511961359346  1.0000
  C   C104      1.0  0.7850098624614288  0.17030632838864856  0.9498304880682501  1.0000
  C   C105      1.0  0.6735834652787754  0.6721896187926526  0.9454115024331345  1.0000
  C   C106      1.0  0.326416534882836  0.6721896187926526  0.054588497596474876  1.0000
  C   C107      1.0  0.17358346529743615  0.1721896185488717  0.945411502108634  1.0000
  C   C108      1.0  0.8264165348641754  0.1721896185488717  0.05458849792097543  1.0000
  C   C109      1.0  0.654896109309264  0.5722141413688512  0.8906369203518673  1.0000
  C   C110      1.0  0.3451038902310187  0.5722141413688512  0.109363079422008  1.0000
  C   C111      1.0  0.15489610932232817  0.07221414112507035  0.890636920743273  1.0000
  C   C112      1.0  0.8451038902179545  0.07221414112507035  0.10936307903060229  1.0000
  C   C113      1.0  0.6781298864668458  0.4699900697704062  0.9409107601834903  1.0000
  C   C114      1.0  0.3218701136947657  0.4699900697704062  0.05908923984611911  1.0000
  C   C115      1.0  0.17812988647990993  0.969990070014187  0.940910760574896  1.0000
  C   C116      1.0  0.8218701136817015  0.969990070014187  0.05908923945471339  1.0000
  C   C117      1.0  0.7193036100871404  0.46801952649494133  0.0456921991548058  1.0000
  C   C118      1.0  0.2806963900744712  0.46801952649494133  0.9543078008748036  1.0000
  C   C119      1.0  0.2193036101002044  0.9680195267387223  0.045692199546211475  1.0000
  C   C120      1.0  0.780696390061407  0.9680195267387223  0.954307800483398  1.0000
  C   C121      1.0  0.49999999998133937  0.2312429169352978  3.2450050133502047e-10  1.0000
  C   C122      1.0  0.9999999999682752  0.7312429171790787  0.9999999999330947  1.0000
  C   C123      1.0  0.43208970903096144  0.16770840388952418  0.017367669394493794  1.0000
  C   C124      1.0  0.5679102911306501  0.16770840388952418  0.9826323306351156  1.0000
  C   C125      1.0  0.9320897090123008  0.6677084032946151  0.017367669718994262  1.0000
  C   C126      1.0  0.0679102911437142  0.6677084032946151  0.9826323310265213  1.0000
  C   C127      1.0  0.43210780890128675  0.05452402427340724  0.017542572625098122  1.0000
  C   C128      1.0  0.5678921906389959  0.05452402427340724  0.9824574271487772  1.0000
  C   C129      1.0  0.932107808882626  0.5545240245171882  0.017542572949598625  1.0000
  C   C130      1.0  0.06789219065765656  0.5545240245171882  0.9824574268242767  1.0000
  C   C131      1.0  0.49999999998133937  0.9911283207827621  3.2450050133502047e-10  1.0000
  C   C132      1.0  0.9999999999682752  0.49112832053898126  0.9999999999330947  1.0000
  C   C133      1.0  0.49999999998133937  0.3428600038198953  3.2450050133502047e-10  1.0000
  C   C134      1.0  0.9999999999682752  0.8428600040636762  0.9999999999330947  1.0000
  C   C135      1.0  0.49999999998133937  0.8796963109775402  3.2450050133502047e-10  1.0000
  C   C136      1.0  0.9999999999682752  0.37969631073375937  0.9999999999330947  1.0000
  O   O1        1.0  0.6553137501496026  0.6669425392538028  0.43094230017667046  1.0000
  O   O2        1.0  0.3446862500120089  0.6669425392538028  0.569057699852939  1.0000
  O   O3        1.0  0.15531375016266669  0.16694253984871193  0.4309423005680762  1.0000
  O   O4        1.0  0.8446862499989448  0.16694253984871193  0.5690576994615333  1.0000
  O   O5        1.0  0.8132695273227603  0.6190212262141266  0.4258079325209472  1.0000
  O   O6        1.0  0.1867304728388513  0.6190212262141266  0.5741920675086623  1.0000
  O   O7        1.0  0.3132695273358243  0.11902122597034571  0.4258079329123529  1.0000
  O   O8        1.0  0.6867304728257873  0.11902122597034571  0.5741920671172565  1.0000
  O   O9        1.0  0.6493812375535896  0.6345899530050375  0.23969381415137572  1.0000
  O   O10       1.0  0.350618762608022  0.6345899530050375  0.7603061858782336  1.0000
  O   O11       1.0  0.1493812375666536  0.13458995276125665  0.2396938145427814  1.0000
  O   O12       1.0  0.850618762594958  0.13458995276125665  0.760306185486828  1.0000
  O   O13       1.0  0.8127205294976132  0.676841381065634  0.2446139430746287  1.0000
  O   O14       1.0  0.1872794706639983  0.676841381065634  0.7553860569549807  1.0000
  O   O15       1.0  0.3127205295106773  0.1768413808218531  0.24461394346603443  1.0000
  O   O16       1.0  0.6872794706509341  0.1768413808218531  0.755386056563575  1.0000
