data_image0
_chemical_formula_structural       H20C48N4O4F20
_chemical_formula_sum              "H20 C48 N4 O4 F20"
_cell_length_a       4.889935552433695
_cell_length_b       17.01531589065953
_cell_length_c       12.515529295442896
_cell_angle_alpha    90.0
_cell_angle_beta     91.68879695458695
_cell_angle_gamma    90.0

_space_group_name_H-M_alt    "P 1"
_space_group_IT_number       1

loop_
  _space_group_symop_operation_xyz
  'x, y, z'

loop_
  _atom_site_type_symbol
  _atom_site_label
  _atom_site_symmetry_multiplicity
  _atom_site_fract_x
  _atom_site_fract_y
  _atom_site_fract_z
  _atom_site_occupancy
  H   H1        1.0  0.28242559494293235  0.5349754449752486  0.7571727518361577  1.0000
  H   H2        1.0  0.2175744042499777  0.03497544470077615  0.7428272482030399  1.0000
  H   H3        1.0  0.7175744055471402  0.4650245549859905  0.24282724848609555  1.0000
  H   H4        1.0  0.782425594180484  0.9650245552604628  0.25717275130187917  1.0000
  H   H5        1.0  0.9190009522144341  0.6347291821910088  0.7290473099541186  1.0000
  H   H6        1.0  0.5809990474839933  0.13472918250424218  0.7709526897210204  1.0000
  H   H7        1.0  0.08099904621602746  0.36527081777023024  0.27095268955080043  1.0000
  H   H8        1.0  0.4190009530060792  0.8652708180447026  0.22904731060123293  1.0000
  H   H9        1.0  0.961262174167412  0.3668927565092665  0.6113503099661526  1.0000
  H   H10       1.0  0.5387378255447672  0.866892756783739  0.8886496905081341  1.0000
  H   H11       1.0  0.03873782632266059  0.6331072434519726  0.3886496903561007  1.0000
  H   H12       1.0  0.46126217494530525  0.1331072431775001  0.11135030981411924  1.0000
  H   H13       1.0  0.20153356682253476  0.31608220761580785  0.4537599719822576  1.0000
  H   H14       1.0  0.29846643239957193  0.8160822078902803  0.04624002816977582  1.0000
  H   H15       1.0  0.7984664336675378  0.6839177923454312  0.5462400283399957  1.0000
  H   H16       1.0  0.7015335660446415  0.1839177920709588  0.953759972134291  1.0000
  H   H17       1.0  0.662584125518581  0.44563183538440276  0.7214202558597581  1.0000
  H   H18       1.0  0.8374158741798465  0.9456318350711693  0.7785797438153809  1.0000
  H   H19       1.0  0.33741587291188063  0.5543681645768364  0.27857974364516097  1.0000
  H   H20       1.0  0.1625841262964744  0.05436816489006967  0.22142025570772483  1.0000
  C   C1        1.0  0.37211733267891584  0.5268147137321556  0.5885977175688816  1.0000
  C   C2        1.0  0.12788266651399424  0.026814713457683267  0.911402282470316  1.0000
  C   C3        1.0  0.6278826678111566  0.4731852868167892  0.4114022827533717  1.0000
  C   C4        1.0  0.8721173319164676  0.9731852865035557  0.08859771703460298  1.0000
  C   C5        1.0  0.22956413193677128  0.5566088276503282  0.6773375179441495  1.0000
  C   C6        1.0  0.2704358672561388  0.056608827375855715  0.8226624820950482  1.0000
  C   C7        1.0  0.7704358685395496  0.4433911723109109  0.32266248157895605  1.0000
  C   C8        1.0  0.7295641332339338  0.9433911725853834  0.1773375182272051  1.0000
  C   C9        1.0  0.028626042593192763  0.6120572951406035  0.6611441258646733  1.0000
  C   C10       1.0  0.47137395864557646  0.11205729486613103  0.838855874192711  1.0000
  C   C11       1.0  0.9713739578968799  0.3879427048206356  0.3388558744575799  1.0000
  C   C12       1.0  0.5286260418307445  0.887942705095108  0.16114412533039474  1.0000
  C   C13       1.0  0.6993200737164275  0.4450118410176928  0.5176234248123394  1.0000
  C   C14       1.0  0.8006799259957517  0.9450118412921653  0.9823765756619474  1.0000
  C   C15       1.0  0.300679926773645  0.5549881589435464  0.482376575509914  1.0000
  C   C16       1.0  0.19932007449432082  0.054988158669073854  0.01762342466030597  1.0000
  C   C17       1.0  0.9088615061466304  0.3876958554511034  0.5311195221419823  1.0000
  C   C18       1.0  0.5911384935517973  0.8876958557255759  0.9688804775331568  1.0000
  C   C19       1.0  0.09113849229758303  0.6123041445101357  0.4688804781620844  1.0000
  C   C20       1.0  0.40886150692452367  0.11230414423566322  0.031119521989948936  1.0000
  C   C21       1.0  0.04072604617060118  0.3598809554491702  0.44343899093411293  1.0000
  C   C22       1.0  0.45927395509736474  0.8598809557236426  0.05656100923610702  1.0000
  C   C23       1.0  0.9592739543194712  0.6401190445120688  0.5565610093881405  1.0000
  C   C24       1.0  0.5407260453927079  0.1401190442375964  0.9434389910861463  1.0000
  C   C25       1.0  0.5639053750586153  0.3946900453189112  0.8577845491416453  1.0000
  C   C26       1.0  0.9360946246398122  0.8946900455933836  0.6422154505334939  1.0000
  C   C27       1.0  0.43609462541770555  0.6053099546423278  0.14221545038146052  1.0000
  C   C28       1.0  0.06390537583650864  0.10530995436785541  0.35778454898961176  1.0000
  C   C29       1.0  0.36517278138688847  0.3433473517354459  0.8142175500650336  1.0000
  C   C30       1.0  0.13482721780602158  0.8433473520099184  0.6857824499741643  1.0000
  C   C31       1.0  0.6348272170435733  0.6566526482257932  0.18578244943988562  1.0000
  C   C32       1.0  0.8651727826840511  0.1566526479513207  0.314217550348089  1.0000
  C   C33       1.0  0.18581436796084577  0.30181641428232947  0.8772882361287264  1.0000
  C   C34       1.0  0.3141856332779234  0.8018164139690961  0.6227117639286578  1.0000
  C   C35       1.0  0.814185632515475  0.6981835862666155  0.12271176339437911  1.0000
  C   C36       1.0  0.6858143672121491  0.198183585992143  0.37728823639359554  1.0000
  C   C37       1.0  0.20329310062806144  0.3090453826300474  0.9880403687733059  1.0000
  C   C38       1.0  0.29670690059695615  0.8090453829045199  0.5119596304849307  1.0000
  C   C39       1.0  0.7967068998482595  0.6909546173311917  0.011959630749799733  1.0000
  C   C40       1.0  0.7032930998793647  0.19095461764442506  0.4880403690381749  1.0000
  C   C41       1.0  0.40341596775372857  0.35762380487689766  0.03395947125301266  1.0000
  C   C42       1.0  0.0965840335142373  0.85762380515137  0.46604052891720726  1.0000
  C   C43       1.0  0.596584032736344  0.6423761950843413  0.9660405290692405  1.0000
  C   C44       1.0  0.9034159669620834  0.14237619480986893  0.5339594706058984  1.0000
  C   C45       1.0  0.5795718063860265  0.39961818068465144  0.9699689432458933  1.0000
  C   C46       1.0  0.9204281933124011  0.8996181809591238  0.5300310564292458  1.0000
  C   C47       1.0  0.4204281940902946  0.6003818192765877  0.03003105627721231  1.0000
  C   C48       1.0  0.07957180717767133  0.10038181900211522  0.4699689438930076  1.0000
  N   N1        1.0  0.570591005707097  0.4727986686639278  0.6032340268876191  1.0000
  N   N2        1.0  0.9294089960371897  0.9727986689384002  0.8967659728057065  1.0000
  N   N3        1.0  0.4294089947692239  0.5272013312973113  0.3967659726354867  1.0000
  N   N4        1.0  0.07059100443913115  0.027201331022838855  0.10323402671739909  1.0000
  O   O1        1.0  0.7365225326104587  0.4367165809762684  0.7991978060889529  1.0000
  O   O2        1.0  0.7634774670879688  0.9367165806630351  0.7008021935861862  1.0000
  O   O3        1.0  0.2634774678658621  0.5632834189849706  0.20080219343415281  1.0000
  O   O4        1.0  0.23652253340210372  0.06328341929820397  0.29919780673606705  1.0000
  F   F1        1.0  0.3471038028617681  0.333378902069865  0.7066385161618659  1.0000
  F   F2        1.0  0.1528961983770011  0.8333789017566315  0.7933614838955183  1.0000
  F   F3        1.0  0.6528961976283044  0.6666210984790799  0.2933614841603875  1.0000
  F   F4        1.0  0.8471038020993199  0.1666210982046075  0.2066385156275872  1.0000
  F   F5        1.0  0.9952107846739222  0.2542115931197291  0.8307725452788036  1.0000
  F   F6        1.0  0.5047892150382571  0.7542115928064956  0.6692274551954831  1.0000
  F   F7        1.0  0.004789213770291204  0.74578840684151  0.16922745502526315  1.0000
  F   F8        1.0  0.4952107854518155  0.2457884071547434  0.33077254512677023  1.0000
  F   F9        1.0  0.029069178871420433  0.2695093978547495  0.05074664180420326  1.0000
  F   F10       1.0  0.4709308203506863  0.7695093981292219  0.44925335834783003  1.0000
  F   F11       1.0  0.9709308216186522  0.7304906021064896  0.9492533585180501  1.0000
  F   F12       1.0  0.5290691801393862  0.23049060183201714  0.5507466419744231  1.0000
  F   F13       1.0  0.42363128163981334  0.3648284092925756  0.1414882797850807  1.0000
  F   F14       1.0  0.07636871962815246  0.864828409567048  0.3585117203851392  1.0000
  F   F15       1.0  0.5763687188502591  0.6351715906686635  0.8585117205371725  1.0000
  F   F16       1.0  0.9236312808619199  0.13517159039419105  0.6414882799371142  1.0000
  F   F17       1.0  0.7676796509167204  0.4474916668564339  0.017664499574415397  1.0000
  F   F18       1.0  0.7323203488109038  0.9474916665432004  0.4823355002135592  1.0000
  F   F19       1.0  0.2323203495733521  0.5525083331048052  0.9823355007478378  1.0000
  F   F20       1.0  0.267679649619558  0.05250833341803854  0.5176644992913598  1.0000
