data_image0
_chemical_formula_structural       H16C14N6O4Br4
_chemical_formula_sum              "H16 C14 N6 O4 Br4"
_cell_length_a       7.6725606602614365
_cell_length_b       7.986583995536269
_cell_length_c       9.115421961644332
_cell_angle_alpha    64.28703305650127
_cell_angle_beta     81.46464990934423
_cell_angle_gamma    85.45724768282012

_space_group_name_H-M_alt    "P 1"
_space_group_IT_number       1

loop_
  _space_group_symop_operation_xyz
  'x, y, z'

loop_
  _atom_site_type_symbol
  _atom_site_label
  _atom_site_symmetry_multiplicity
  _atom_site_fract_x
  _atom_site_fract_y
  _atom_site_fract_z
  _atom_site_occupancy
  H   H1        1.0  0.7145862602600154  0.8123835529073347  0.3692935600989765  1.0000
  H   H2        1.0  0.28541374068599207  0.18761644827696816  0.6307064395118149  1.0000
  H   H3        1.0  0.9293002619362409  0.7051470837933699  0.3988436272535782  1.0000
  H   H4        1.0  0.07069973780938121  0.294852916135165  0.6011563723576294  1.0000
  H   H5        1.0  0.8885677736108777  0.9311047943614832  0.39087549727915166  1.0000
  H   H6        1.0  0.11143222596830978  0.06889520497146465  0.609124503559605  1.0000
  H   H7        1.0  0.009010909487447018  0.8067856095601076  0.6696274419834228  1.0000
  H   H8        1.0  0.9909890915616778  0.19321439036836655  0.33037255762692086  1.0000
  H   H9        1.0  0.03378859978756816  0.5798682579291858  0.6798781087693109  1.0000
  H   H10       1.0  0.9662113999580539  0.42013174199934916  0.3201218908418969  1.0000
  H   H11       1.0  0.9007089350851194  0.61944670916829  0.8417208215904771  1.0000
  H   H12       1.0  0.09929106449406806  0.38055329016465783  0.15827917924827964  1.0000
  H   H13       1.0  0.9121284868425724  0.31299547636183106  0.9657334153256678  1.0000
  H   H14       1.0  0.0878715129030497  0.6870045235667039  0.034266584285539775  1.0000
  H   H15       1.0  0.31430216334586514  0.9288339176962283  0.9709570124637165  1.0000
  H   H16       1.0  0.6856978363997568  0.07116608223230642  0.029042987147491133  1.0000
  C   C1        1.0  0.4941338415172586  0.7161658756406191  0.7544052540502895  1.0000
  C   C2        1.0  0.5058661595318661  0.2838341242878551  0.24559474556005437  1.0000
  C   C3        1.0  0.6847169873644535  0.5222788653676349  0.6757987436845879  1.0000
  C   C4        1.0  0.31528301238116857  0.4777211345609  0.3242012559266198  1.0000
  C   C5        1.0  0.7805798171337978  0.708939465839417  0.6172723257618588  1.0000
  C   C6        1.0  0.2194201826118243  0.2910605340891177  0.38272767384934897  1.0000
  C   C7        1.0  0.8307993987647865  0.7943397507921774  0.4317424276599607  1.0000
  C   C8        1.0  0.16920060081440122  0.20566024854077034  0.5682575731787961  1.0000
  C   C9        1.0  0.9407013001227512  0.6759280940532187  0.7086871314478788  1.0000
  C   C10       1.0  0.05929869951975342  0.32407190713114453  0.29131286816377666  1.0000
  C   C11       1.0  0.9511051474434168  0.17371068585221083  0.9797548625705738  1.0000
  C   C12       1.0  0.04889485213577068  0.826289313480737  0.020245138268183055  1.0000
  C   C13       1.0  0.17412112126418997  0.9596137395051297  0.9857739884856473  1.0000
  C   C14       1.0  0.825878879515383  0.0403862610835858  0.014226012352693303  1.0000
  N   N1        1.0  0.5246320478005686  0.5377074349342095  0.7559260934714885  1.0000
  N   N2        1.0  0.47536795194505355  0.4622925649943254  0.24407390613971913  1.0000
  N   N3        1.0  0.6402338016375481  0.8172171439587855  0.6673961738338802  1.0000
  N   N4        1.0  0.35976619810807403  0.18278285596974927  0.33260382577732744  1.0000
  N   N5        1.0  0.12314430117815765  0.13151646522905616  0.9655595713852969  1.0000
  N   N6        1.0  0.8768556998709672  0.868483534699418  0.03444042822504689  1.0000
  O   O1        1.0  0.35979847125217795  0.7634326517137409  0.8190165823986504  1.0000
  O   O2        1.0  0.640201528493444  0.23656734821479378  0.18098341721255734  1.0000
  O   O3        1.0  0.7490838522220417  0.3882597350453616  0.6518633448084776  1.0000
  O   O4        1.0  0.250916147357146  0.6117402642875863  0.34813665603027916  1.0000
  Br  Br1       1.0  0.34022350080904795  0.3498641803492394  0.8593994301528595  1.0000
  Br  Br2       1.0  0.6597764989365741  0.6501358195792954  0.14060056945834817  1.0000
  Br  Br3       1.0  0.6720865326898622  0.051969887866385886  0.6591363635694649  1.0000
  Br  Br4       1.0  0.32791346688932554  0.9480301114665619  0.34086363726929186  1.0000
