data_image0
_chemical_formula_structural       H34C48N8O4F4Cl2
_chemical_formula_sum              "H34 C48 N8 O4 F4 Cl2"
_cell_length_a       7.214361009599866
_cell_length_b       12.187738573817526
_cell_length_c       12.964995979419706
_cell_angle_alpha    67.2859264849016
_cell_angle_beta     88.21365443111719
_cell_angle_gamma    90.1946264933741

_space_group_name_H-M_alt    "P 1"
_space_group_IT_number       1

loop_
  _space_group_symop_operation_xyz
  'x, y, z'

loop_
  _atom_site_type_symbol
  _atom_site_label
  _atom_site_symmetry_multiplicity
  _atom_site_fract_x
  _atom_site_fract_y
  _atom_site_fract_z
  _atom_site_occupancy
  H   H1        1.0  0.8502500201491385  0.37898740595715485  0.3034646605590056  1.0000
  H   H2        1.0  0.1497499801531268  0.6210125940941995  0.6965353400166837  1.0000
  H   H3        1.0  0.9171762448815355  0.5322751614782265  0.25017217087630417  1.0000
  H   H4        1.0  0.08282375548151114  0.4677248389219017  0.7498278288627556  1.0000
  H   H5        1.0  0.9045101942622056  0.7812564714856958  0.8933685974433733  1.0000
  H   H6        1.0  0.09548980610084097  0.21874352891443238  0.10663140229568654  1.0000
  H   H7        1.0  0.8736956286818772  0.9795917847095831  0.8999682227989264  1.0000
  H   H8        1.0  0.12630437162038796  0.020408215341771344  0.10003177777676284  1.0000
  H   H9        1.0  0.570450612014289  0.824906883070919  0.21554514253925294  1.0000
  H   H10       1.0  0.42954938698415557  0.17509311649895867  0.7844548571875342  1.0000
  H   H11       1.0  0.4136089719087311  0.5115672476209308  0.4468235806591136  1.0000
  H   H12       1.0  0.5863910284543157  0.48843275277919734  0.5531764190799461  1.0000
  H   H13       1.0  0.11627080346220503  0.5667539404643448  0.5143989954988577  1.0000
  H   H14       1.0  0.8837291969008416  0.4332460599357833  0.485601004240202  1.0000
  H   H15       1.0  0.9043147567900375  0.706719766011864  0.37816143064468827  1.0000
  H   H16       1.0  0.09568524359390973  0.2932802335699647  0.6218385690893808  1.0000
  H   H17       1.0  0.9964476620875081  0.7930017876469251  0.1751468302794592  1.0000
  H   H18       1.0  0.003552338275538505  0.20699821275320313  0.8248531694596005  1.0000
  H   H19       1.0  0.29504869912431214  0.7406505123568154  0.11012626577327253  1.0000
  H   H20       1.0  0.7049513012387343  0.2593494880433128  0.8898737339657872  1.0000
  H   H21       1.0  0.6586630443411434  0.5769487510452038  0.7899403546385682  1.0000
  H   H22       1.0  0.3413369560428037  0.42305124853662474  0.21005964509550107  1.0000
  H   H23       1.0  0.8303873092068611  0.6796717680803929  0.7950032274158645  1.0000
  H   H24       1.0  0.16961269109540403  0.3203282319709617  0.20499677315982479  1.0000
  H   H25       1.0  0.5983573974849883  0.6914146507104391  0.8379089648583298  1.0000
  H   H26       1.0  0.4016426028172769  0.3085853493409153  0.16209103571735956  1.0000
  H   H27       1.0  0.0075947475961901855  0.08459826222161015  0.5571702520138901  1.0000
  H   H28       1.0  0.9924052527668563  0.915401738178518  0.44282974772516953  1.0000
  H   H29       1.0  0.4820202262781046  0.3174905153919272  0.4074675569307381  1.0000
  H   H30       1.0  0.5179797740849421  0.6825094850082012  0.5925324428083216  1.0000
  H   H31       1.0  0.5599574751149613  0.9704974943559456  0.667844302746317  1.0000
  H   H32       1.0  0.4400425238625829  0.02950250603223145  0.33215569698546066  1.0000
  H   H33       1.0  0.25609927770833285  0.7461131759520463  0.8162859125161276  1.0000
  H   H34       1.0  0.7439007225939324  0.2538868240993079  0.18371408805956166  1.0000
  C   C1        1.0  0.7439910069520942  0.5449064998675412  0.952397583223479  1.0000
  C   C2        1.0  0.25600899343185296  0.4550934997142873  0.04760241651059019  1.0000
  C   C3        1.0  0.7955587828104876  0.47292789402381935  0.1327162630971084  1.0000
  C   C4        1.0  0.2044412175525589  0.5270721063763087  0.8672837366419512  1.0000
  C   C5        1.0  0.8097044337525151  0.4684827671274506  0.24807425004471093  1.0000
  C   C6        1.0  0.1902955666105314  0.5315172332726777  0.7519257496943487  1.0000
  C   C7        1.0  0.5606385636729618  0.5994545668387924  0.23558878519163573  1.0000
  C   C8        1.0  0.4393614366900847  0.4005454335613357  0.764411214547424  1.0000
  C   C9        1.0  0.653752110364362  0.7004461155898162  0.141837035147716  1.0000
  C   C10       1.0  0.3462478899588038  0.2995538836432387  0.8581629654229828  1.0000
  C   C11       1.0  0.7501252050421563  0.6899930168948333  0.049704903230180196  1.0000
  C   C12       1.0  0.24987479528100937  0.3100069823382216  0.9502950973405186  1.0000
  C   C13       1.0  0.8289772277491391  0.7898559339555822  0.9638126666829414  1.0000
  C   C14       1.0  0.17102277261390758  0.21014406644454597  0.03618733305611835  1.0000
  C   C15       1.0  0.8136134477653275  0.9019835022522481  0.967547069715031  1.0000
  C   C16       1.0  0.18638655259771922  0.09801649814788009  0.03245293002402864  1.0000
  C   C17       1.0  0.7215813053467495  0.9127493796664312  0.05944257810982267  1.0000
  C   C18       1.0  0.27841869363079463  0.08725062072174584  0.940557421621955  1.0000
  C   C19       1.0  0.6421922035380933  0.8139732349897728  0.1451162150547732  1.0000
  C   C20       1.0  0.35780779543945096  0.18602676539840426  0.8548837846770043  1.0000
  C   C21       1.0  0.37714652565492723  0.6256869910011515  0.2749497279419823  1.0000
  C   C22       1.0  0.6228534747290198  0.37431300858067695  0.7250502717920869  1.0000
  C   C23       1.0  0.32210998765754795  0.5743707684393548  0.3884530878398788  1.0000
  C   C24       1.0  0.6778900127054988  0.42562923196077335  0.6115469118991809  1.0000
  C   C25       1.0  0.15424033534180975  0.6043813664013948  0.42559894473082954  1.0000
  C   C26       1.0  0.8457596649604554  0.39561863364995964  0.5744010558448597  1.0000
  C   C27       1.0  0.03594414443756883  0.6832472471823775  0.34925106025398556  1.0000
  C   C28       1.0  0.9640558559254777  0.3167527532177506  0.6507489394850742  1.0000
  C   C29       1.0  0.08776162858527771  0.7323920878462089  0.2356964175831382  1.0000
  C   C30       1.0  0.9122383717169874  0.2676079122051456  0.7643035829925512  1.0000
  C   C31       1.0  0.2572461813188822  0.7041192565669075  0.19877812208137446  1.0000
  C   C32       1.0  0.742753817658662  0.2958807438212695  0.8012218776504031  1.0000
  C   C33       1.0  0.7058671011309348  0.6280649767601546  0.837604981758624  1.0000
  C   C34       1.0  0.29413289784660945  0.3719350236280225  0.16239501797315373  1.0000
  C   C35       1.0  0.2748137553029077  0.016053643343993753  0.6213001545681698  1.0000
  C   C36       1.0  0.7251862436746365  0.9839463570441834  0.3786998451636077  1.0000
  C   C37       1.0  0.15628389715587912  0.10142833904393396  0.5515749195375562  1.0000
  C   C38       1.0  0.8437161032071674  0.8985716613561943  0.44842508020150357  1.0000
  C   C39       1.0  0.23418384817598983  0.20759477675953855  0.47679675762678936  1.0000
  C   C40       1.0  0.7658161521870567  0.7924052236405896  0.5232032421122703  1.0000
  C   C41       1.0  0.4235585613850674  0.23313306871617617  0.4669482740792199  1.0000
  C   C42       1.0  0.5764414389988797  0.7668669308656524  0.5330517256548494  1.0000
  C   C43       1.0  0.5353400753390553  0.14486378186641782  0.537400070628183  1.0000
  C   C44       1.0  0.46465992504489184  0.8551362177154107  0.4625999291058862  1.0000
  C   C45       1.0  0.46695651485832923  0.03709910941148088  0.6148917642871041  1.0000
  C   C46       1.0  0.5330434855256179  0.9629008901703479  0.38510823544696504  1.0000
  C   C47       1.0  0.19149153810225278  0.9019789834469517  0.7029924904565775  1.0000
  C   C48       1.0  0.8085084608752915  0.09802101694122534  0.2970075092751999  1.0000
  N   N1        1.0  0.7937541741149563  0.3838170246290412  0.09905833241015827  1.0000
  N   N2        1.0  0.2062458262082094  0.6161829746040135  0.9009416681605406  1.0000
  N   N3        1.0  0.76114899227585  0.42839399793853244  0.9857052992942666  1.0000
  N   N4        1.0  0.23885100810809715  0.5716060016432961  0.014294700439802688  1.0000
  N   N5        1.0  0.7641040151241446  0.5768865516697815  0.04322884628189877  1.0000
  N   N6        1.0  0.23589598523890198  0.42311344873034673  0.9567711534571609  1.0000
  N   N7        1.0  0.6275702511076439  0.49468131861634956  0.2861815601437191  1.0000
  N   N8        1.0  0.37242974921552185  0.5053186806167053  0.7138184404269797  1.0000
  O   O1        1.0  0.31832843520356996  0.824161897990118  0.7586276127390172  1.0000
  O   O2        1.0  0.6816715651803771  0.1758381015917105  0.241372386995052  1.0000
  O   O3        1.0  0.022478804966676216  0.8835150035067358  0.7168236815531555  1.0000
  O   O4        1.0  0.9775211953963705  0.11648499689339238  0.28317631818590416  1.0000
  F   F1        1.0  0.11944243154107503  0.2931211669469375  0.41038369745459197  1.0000
  F   F2        1.0  0.8805575688428721  0.7068788326348912  0.5896163022794773  1.0000
  F   F3        1.0  0.7223288639072084  0.16586272235851843  0.5282894463610077  1.0000
  F   F4        1.0  0.2776711364767387  0.8341372772233101  0.47171055337306156  1.0000
  Cl  Cl1       1.0  0.7044595556618743  0.049412570475334226  0.06954590482601462  1.0000
  Cl  Cl2       1.0  0.29554044466129137  0.9505874287577207  0.9304540957446843  1.0000
