data_image0
_chemical_formula_structural       H48C24N8O16S8
_chemical_formula_sum              "H48 C24 N8 O16 S8"
_cell_length_a       6.608789614333342
_cell_length_b       7.92351324272043
_cell_length_c       17.933543158475135
_cell_angle_alpha    90.0
_cell_angle_beta     90.0
_cell_angle_gamma    90.0

_space_group_name_H-M_alt    "P 1"
_space_group_IT_number       1

loop_
  _space_group_symop_operation_xyz
  'x, y, z'

loop_
  _atom_site_type_symbol
  _atom_site_label
  _atom_site_symmetry_multiplicity
  _atom_site_fract_x
  _atom_site_fract_y
  _atom_site_fract_z
  _atom_site_occupancy
  H   H1        1.0  0.6765557039828738  0.3713959653823514  0.5088387659572738  1.0000
  H   H2        1.0  0.176555705067289  0.1286040344459804  0.49116123357014047  1.0000
  H   H3        1.0  0.3234442953614323  0.8713959652106832  0.9911612336126546  1.0000
  H   H4        1.0  0.8234442957901535  0.6286040342743122  0.00883876647237388  1.0000
  H   H5        1.0  0.8742790597341242  0.2631997317497993  0.5573064141135297  1.0000
  H   H6        1.0  0.3742790608185393  0.23680026807853247  0.44269358597149894  1.0000
  H   H7        1.0  0.125720939610182  0.7631997315781311  0.9426935860140132  1.0000
  H   H8        1.0  0.6257209400389033  0.7368002679068643  0.05730641407101532  1.0000
  H   H9        1.0  0.8668060665111463  0.6180742140488393  0.507148059344974  1.0000
  H   H10       1.0  0.366806066082425  0.8819257854361562  0.4928519407400547  1.0000
  H   H11       1.0  0.13319393434629628  0.11807421422050748  0.992851940782569  1.0000
  H   H12       1.0  0.6331939332618812  0.38192578560782436  0.0071480593024596615  1.0000
  H   H13       1.0  0.06724532114566785  0.5174550094639963  0.5573280328196925  1.0000
  H   H14       1.0  0.5672453215743891  0.9825449900209992  0.44267196670772196  1.0000
  H   H15       1.0  0.9327546781986384  0.017455009635664452  0.9426719667502363  1.0000
  H   H16       1.0  0.43275467776991705  0.4825449901926674  0.05732803333479236  1.0000
  H   H17       1.0  0.41305314426707845  0.5064602679482882  0.5764253471079817  1.0000
  H   H18       1.0  0.9130531446957997  0.993539731536707  0.42357465297704694  1.0000
  H   H19       1.0  0.586946856590364  0.006460268119956507  0.9235746530195611  1.0000
  H   H20       1.0  0.08694685616164281  0.4935397317083753  0.07642534706546736  1.0000
  H   H21       1.0  0.41939072837009805  0.5097982266529448  0.676156655873632  1.0000
  H   H22       1.0  0.9193907287988193  0.9902017740941169  0.3238433436537823  1.0000
  H   H23       1.0  0.5806092709742081  0.009798226824613045  0.8238433436962966  1.0000
  H   H24       1.0  0.08060927054548685  0.49020177300371875  0.1761566558311177  1.0000
  H   H25       1.0  0.6020610054480253  0.7538842300147542  0.5719151647482968  1.0000
  H   H26       1.0  0.10206100501930408  0.7461157707323076  0.4280848353367317  1.0000
  H   H27       1.0  0.39793899540941724  0.25388423018642237  0.9280848353792461  1.0000
  H   H28       1.0  0.897938994325002  0.2461157696419094  0.0719151647057826  1.0000
  H   H29       1.0  0.6017445753417523  0.7632323938571066  0.6711381924721336  1.0000
  H   H30       1.0  0.10174457642616738  0.7367676068899552  0.328861807612895  1.0000
  H   H31       1.0  0.39825542400255387  0.26323239402877485  0.8288618076554093  1.0000
  H   H32       1.0  0.8982554244312753  0.23676760706162336  0.17113819242961925  1.0000
  H   H33       1.0  0.06738683419943062  0.5228042350791537  0.6912848827723855  1.0000
  H   H34       1.0  0.567386834628152  0.9771957644058415  0.3087151173126431  1.0000
  H   H35       1.0  0.932613166658012  0.02280423525082198  0.8087151173551574  1.0000
  H   H36       1.0  0.4326131662292907  0.47719576457750984  0.19128488272987118  1.0000
  H   H37       1.0  0.8648803553381958  0.6248074355839979  0.7399566696182269  1.0000
  H   H38       1.0  0.3648803564226111  0.875192565163064  0.26004333046680167  1.0000
  H   H39       1.0  0.13511964400611026  0.12480743575566614  0.7600433305093159  1.0000
  H   H40       1.0  0.6351196444348316  0.37519256533473205  0.23995666957571263  1.0000
  H   H41       1.0  0.88808948725962  0.27001276762748855  0.6881931702474238  1.0000
  H   H42       1.0  0.3880894868308987  0.22998723220084324  0.3118068298376049  1.0000
  H   H43       1.0  0.11191051208468618  0.7700127687178868  0.8118068298801192  1.0000
  H   H44       1.0  0.6119105125134074  0.729987232029175  0.18819317020490942  1.0000
  H   H45       1.0  0.6901358563613595  0.36471840602462463  0.741360217136839  1.0000
  H   H46       1.0  0.1901358559326382  0.1352815938037072  0.2586397829481896  1.0000
  H   H47       1.0  0.3098641444960831  0.8647184058529565  0.7586397829907039  1.0000
  H   H48       1.0  0.8098641449248044  0.635281593632039  0.2413602170943247  1.0000
  C   C1        1.0  0.784486522124367  0.37753723864200117  0.6914907177246523  1.0000
  C   C2        1.0  0.284486523208782  0.1224627611863306  0.308509281802762  1.0000
  C   C3        1.0  0.21551347721993924  0.877537238470333  0.8085092818452764  1.0000
  C   C4        1.0  0.7155134776486606  0.6224627610146625  0.19149071823975233  1.0000
  C   C5        1.0  0.9041859400456619  0.5467774858558234  0.6915199796499374  1.0000
  C   C6        1.0  0.40418593961694055  0.953222513629172  0.3084800204350912  1.0000
  C   C7        1.0  0.09581406081178077  0.046777486027491655  0.8084800199199912  1.0000
  C   C8        1.0  0.5958140597273657  0.45322251380084017  0.1915199796074231  1.0000
  C   C9        1.0  0.90414171712179  0.5421069250999618  0.556383459856597  1.0000
  C   C10       1.0  0.40414171820620504  0.9578930743850337  0.44361654022843167  1.0000
  C   C11       1.0  0.09585828222251627  0.04210692527163002  0.9436165397133317  1.0000
  C   C12       1.0  0.5958582826512375  0.4578930745567018  0.05638345981408267  1.0000
  C   C13       1.0  0.7779478300912179  0.3758405493593335  0.5571120191761102  1.0000
  C   C14       1.0  0.27794783117563293  0.12415945046899837  0.4428879803513041  1.0000
  C   C15       1.0  0.22205216925308838  0.8758405491876653  0.9428879803938184  1.0000
  C   C16       1.0  0.7220521696818096  0.6241594502973302  0.05711201913359591  1.0000
  C   C17       1.0  0.6338364820866752  0.6828003379650426  0.6229104338882833  1.0000
  C   C18       1.0  0.1338364816579538  0.8171996615199528  0.3770895661967454  1.0000
  C   C19       1.0  0.3661635187707675  0.18280033813671073  0.8770895662392597  1.0000
  C   C20       1.0  0.8661635191994888  0.3171996616916211  0.12291043384576891  1.0000
  C   C21       1.0  0.5105892738182418  0.5168462946360844  0.6254241072656881  1.0000
  C   C22       1.0  0.010589274902656955  0.9831537048489111  0.37457589281934056  1.0000
  C   C23       1.0  0.4894107255260643  0.016846294807752578  0.8745758928618549  1.0000
  C   C24       1.0  0.9894107259547856  0.48315370502057925  0.1254241072231738  1.0000
  N   N1        1.0  0.6525734955530194  0.37297241128675823  0.625284445516871  1.0000
  N   N2        1.0  0.15257349663743447  0.12702758980363996  0.37471555456815764  1.0000
  N   N3        1.0  0.3474265037912868  0.87297241111509  0.874715554610672  1.0000
  N   N4        1.0  0.8474265042200082  0.6270275896319718  0.12528444547435666  1.0000
  N   N5        1.0  0.8517583912478399  0.6414500177266038  0.6232674469973728  1.0000
  N   N6        1.0  0.35175839081911864  0.8585499817583916  0.3767325530876558  1.0000
  N   N7        1.0  0.1482416080964663  0.14145001789827197  0.8767325531301701  1.0000
  N   N8        1.0  0.6482416085251876  0.3585499819300598  0.12326744695485853  1.0000
  O   O1        1.0  0.21901064710258675  0.8096344744414721  0.6072337816218771  1.0000
  O   O2        1.0  0.7190106475313081  0.6903655250435233  0.39276621846315146  1.0000
  O   O3        1.0  0.7809893522417195  0.3096344746131403  0.8927662179480516  1.0000
  O   O4        1.0  0.28098935332613456  0.1903655252151915  0.10723378157936288  1.0000
  O   O5        1.0  0.9196843559398304  0.953136666609149  0.5542764272604119  1.0000
  O   O6        1.0  0.4196843555111091  0.5468633341379128  0.4457235722670025  1.0000
  O   O7        1.0  0.0803156449176122  0.4531366667808172  0.9457235723095169  1.0000
  O   O8        1.0  0.5803156453463335  0.04686333304751462  0.054276427217897535  1.0000
  O   O9        1.0  0.553994523000007  0.06687407893043083  0.697905564973933  1.0000
  O   O10       1.0  0.053994524084422055  0.433125920897901  0.30209443455348134  1.0000
  O   O11       1.0  0.44600547634429927  0.5668740787587626  0.8020944345959957  1.0000
  O   O12       1.0  0.9460054767730205  0.9331259207262328  0.197905565489033  1.0000
  O   O13       1.0  0.2661553994978299  0.2172145533524827  0.6399590113667114  1.0000
  O   O14       1.0  0.7661553999265512  0.28278544647584913  0.36004098871831713  1.0000
  O   O15       1.0  0.7338445998464763  0.7172145531808144  0.8600409887608315  1.0000
  O   O16       1.0  0.23384460093089138  0.7827854475662473  0.13995901132419716  1.0000
  S   S1        1.0  0.015525897477120774  0.8792728460952253  0.6207915374903875  1.0000
  S   S2        1.0  0.515525897905842  0.6207271546518366  0.3792084625946411  1.0000
  S   S3        1.0  0.9844741018671855  0.37927284626689345  0.8792084626371555  1.0000
  S   S4        1.0  0.48447410143846414  0.12072715482350481  0.12079153744787322  1.0000
  S   S5        1.0  0.4664376353143985  0.1382072492913531  0.6294572321959291  1.0000
  S   S6        1.0  0.9664376357431198  0.36179275053697874  0.37054276788909946  1.0000
  S   S7        1.0  0.5335623640299078  0.6382072491196848  0.8705427679316138  1.0000
  S   S8        1.0  0.03356236360118639  0.8617927503653104  0.12945723215341484  1.0000
