data_image0
_chemical_formula_structural       H52C66N4O18
_chemical_formula_sum              "H52 C66 N4 O18"
_cell_length_a       7.77290568413935
_cell_length_b       11.67796562070925
_cell_length_c       15.126900103771572
_cell_angle_alpha    87.80009010054334
_cell_angle_beta     79.4514863309013
_cell_angle_gamma    88.44907353443517

_space_group_name_H-M_alt    "P 1"
_space_group_IT_number       1

loop_
  _space_group_symop_operation_xyz
  'x, y, z'

loop_
  _atom_site_type_symbol
  _atom_site_label
  _atom_site_symmetry_multiplicity
  _atom_site_fract_x
  _atom_site_fract_y
  _atom_site_fract_z
  _atom_site_occupancy
  H   H1        1.0  0.7323836902147034  0.883668027683827  0.2383032456440345  1.0000
  H   H2        1.0  0.2676163105307032  0.11633197236992333  0.7616967546178042  1.0000
  H   H3        1.0  0.9108890810651058  0.7674739129611177  0.10789112049797184  1.0000
  H   H4        1.0  0.08911091837205146  0.23252608709521647  0.8921088799044016  1.0000
  H   H5        1.0  0.6083353120358433  0.4157397901141999  0.2450268159565811  1.0000
  H   H6        1.0  0.39166468867450127  0.5842602099520747  0.7549731836474133  1.0000
  H   H7        1.0  0.9647555180428947  0.5877154700449587  0.030826845543603158  1.0000
  H   H8        1.0  0.035244481416507795  0.41228452915434727  0.9691731548724715  1.0000
  H   H9        1.0  0.818492635583502  0.40663913734331836  0.09843374172224294  1.0000
  H   H10       1.0  0.18150736516190466  0.5933608627104319  0.9015662585395957  1.0000
  H   H11       1.0  0.2828797181829858  0.006932945682857308  0.48580928702813037  1.0000
  H   H12       1.0  0.7171202812191095  0.9930670543860011  0.5141907127163989  1.0000
  H   H13       1.0  0.27587401463941874  0.0770746716579385  0.9118926604843147  1.0000
  H   H14       1.0  0.7241259847626765  0.92292532841092  0.08810733926021459  1.0000
  H   H15       1.0  0.41692856207661294  0.24801882304039818  0.9661619857567677  1.0000
  H   H16       1.0  0.5830714373254824  0.7519811770284603  0.03383801398776146  1.0000
  H   H17       1.0  0.5246730308339838  0.3434332368682843  0.0890067560142994  1.0000
  H   H18       1.0  0.4753269686031736  0.6565667631880497  0.910993244388074  1.0000
  H   H19       1.0  0.35617060709809883  0.05888771570254776  0.2709800635316084  1.0000
  H   H20       1.0  0.6438293923039964  0.9411122843663108  0.7290199362129208  1.0000
  H   H21       1.0  0.49211198225562114  0.24924984680841686  0.2418476880664812  1.0000
  H   H22       1.0  0.5078880184897855  0.7507501532453333  0.7581523121953574  1.0000
  H   H23       1.0  0.09161056347895385  0.8421322159049378  0.792390549073151  1.0000
  H   H24       1.0  0.9083894372664527  0.1578677841488125  0.20760945118868765  1.0000
  H   H25       1.0  0.8861181917833214  0.42193351657266914  0.6094631922436803  1.0000
  H   H26       1.0  0.11388180892702325  0.5780664834936057  0.3905368073603141  1.0000
  H   H27       1.0  0.237974641848353  0.5141794771397081  0.5092598160912772  1.0000
  H   H28       1.0  0.7620253588970537  0.48582052291404226  0.49074018417056126  1.0000
  H   H29       1.0  0.881621927786558  0.22057825055780095  0.6333321345462586  1.0000
  H   H30       1.0  0.11837807161553722  0.7794217495110576  0.3666678651982707  1.0000
  H   H31       1.0  0.28351508545572823  0.7253053852529638  0.5278854615142516  1.0000
  H   H32       1.0  0.7164849152546163  0.27469461481331103  0.4721145380897428  1.0000
  H   H33       1.0  0.3032337767283333  0.3673801716540594  0.43837085634072476  1.0000
  H   H34       1.0  0.696766222708824  0.6326198284022747  0.5616291440616487  1.0000
  H   H35       1.0  0.8965971279444415  0.5291940415760668  0.7119341166542201  1.0000
  H   H36       1.0  0.10340287280096526  0.47080595847768364  0.2880658836076185  1.0000
  H   H37       1.0  0.4220950166765058  0.16567172557369045  0.41253875760011943  1.0000
  H   H38       1.0  0.5779049840338388  0.8343282744925842  0.5874612420038751  1.0000
  H   H39       1.0  0.9037090635477282  0.6814823191596621  0.8243722897151825  1.0000
  H   H40       1.0  0.09629093585436717  0.31851768090919647  0.17562771002934674  1.0000
  H   H41       1.0  0.022304945434927448  0.02851712812337244  0.6015155613696248  1.0000
  H   H42       1.0  0.9776950539671678  0.9714828719454861  0.39848443837490444  1.0000
  H   H43       1.0  0.2721097065300014  0.8679253074125924  0.6479921782101672  1.0000
  H   H44       1.0  0.7278902941803431  0.1320746926536823  0.35200782139382725  1.0000
  H   H45       1.0  0.2191836020145468  0.721679878504914  0.2189206578377843  1.0000
  H   H46       1.0  0.7808163973875486  0.2783201215639445  0.781079341906745  1.0000
  H   H47       1.0  0.23287507858372974  0.6477729767144728  0.08214385090032214  1.0000
  H   H48       1.0  0.7671249221616769  0.3522270233392776  0.9178561493615165  1.0000
  H   H49       1.0  0.2644726263415076  0.508738232736082  0.13058915386418474  1.0000
  H   H50       1.0  0.7355273730605877  0.49126176733277643  0.8694108458803445  1.0000
  H   H51       1.0  0.4381735879428792  0.6077234765703755  0.11460501229602121  1.0000
  H   H52       1.0  0.5618264114942781  0.39227652348595854  0.8853949881063522  1.0000
  C   C1        1.0  0.47898911165169267  0.9104188064407384  0.3867094284258181  1.0000
  C   C2        1.0  0.5210108890586519  0.08958119362553651  0.6132905711781764  1.0000
  C   C3        1.0  0.6731515846269773  0.8027703186409523  0.2640744706893208  1.0000
  C   C4        1.0  0.32684841481017995  0.19722968141538186  0.7359255297130527  1.0000
  C   C5        1.0  0.6375952247167128  0.5958586499239859  0.25678175547639304  1.0000
  C   C6        1.0  0.36240477472044447  0.4041413501323483  0.7432182449259804  1.0000
  C   C7        1.0  0.7206280648824631  0.6977082709185692  0.21909388941441824  1.0000
  C   C8        1.0  0.27937193582788156  0.30229172914770536  0.7809061101895762  1.0000
  C   C9        1.0  0.5474644725697185  0.8035774663457557  0.3390040492974039  1.0000
  C   C10       1.0  0.45253552817568804  0.19642253370799478  0.6609959509644348  1.0000
  C   C11       1.0  0.5116151225019518  0.5984753996487874  0.34054121128454684  1.0000
  C   C12       1.0  0.48838487693520555  0.40152460040754673  0.6594587891178266  1.0000
  C   C13       1.0  0.8415338745400106  0.6916620773441114  0.1377686810931378  1.0000
  C   C14       1.0  0.15846612620539607  0.308337922709639  0.8622313191687009  1.0000
  C   C15       1.0  0.6739618889372808  0.49192851896128353  0.2132682000435043  1.0000
  C   C16       1.0  0.32603811049987663  0.5080714810950506  0.7867318003588692  1.0000
  C   C17       1.0  0.8732313971008562  0.5885247166227797  0.09452411426463804  1.0000
  C   C18       1.0  0.12676860360948844  0.4114752834434951  0.9054758853393564  1.0000
  C   C19       1.0  0.7900377376562213  0.48799569784055397  0.13190428950746697  1.0000
  C   C20       1.0  0.2099622617458738  0.5120043022283046  0.8680957102370623  1.0000
  C   C21       1.0  0.12689313902655106  0.8652645279879324  0.9300899928019378  1.0000
  C   C22       1.0  0.8731068603755443  0.1347354720809261  0.06991000694259143  1.0000
  C   C23       1.0  0.19485802000934732  0.9352778766722054  0.9973111935945118  1.0000
  C   C24       1.0  0.8051419793927479  0.06472212339665322  0.0026888061500175134  1.0000
  C   C25       1.0  0.32584071197345627  0.09931097855866347  0.048532841591629294  1.0000
  C   C26       1.0  0.674159287463701  0.9006890214976706  0.9514671588107442  1.0000
  C   C27       1.0  0.2657851517377199  0.0400025809083057  0.9794813664909097  1.0000
  C   C28       1.0  0.7342148476994373  0.9599974191480284  0.02051863391146383  1.0000
  C   C29       1.0  0.40338287247731575  0.20740405957571634  0.033014697869993545  1.0000
  C   C30       1.0  0.5966171282330288  0.7925959404905584  0.966985301734001  1.0000
  C   C31       1.0  0.3077326686535057  0.046510203843633316  0.1356440769466883  1.0000
  C   C32       1.0  0.6922673307485897  0.9534897962252251  0.8643559227978409  1.0000
  C   C33       1.0  0.23290809914518648  0.933162833142171  0.15213374324340267  1.0000
  C   C34       1.0  0.7670919002919707  0.06683716691416326  0.8478662571589708  1.0000
  C   C35       1.0  0.46237752357930384  0.2605422617200056  0.10197439719813389  1.0000
  C   C36       1.0  0.5376224758227914  0.739457738348853  0.8980256025463954  1.0000
  C   C37       1.0  0.36690065476835276  0.10133882050827663  0.2050606677701879  1.0000
  C   C38       1.0  0.6330993446337426  0.8986611795605819  0.7949393319743414  1.0000
  C   C39       1.0  0.4441891420746702  0.20748744135575783  0.18811662721932307  1.0000
  C   C40       1.0  0.5558108573274251  0.7925125587131006  0.8118833725252061  1.0000
  C   C41       1.0  0.0790128815400271  0.31078504041584404  0.537944748282639  1.0000
  C   C42       1.0  0.9209871191703176  0.6892149596504307  0.4620552513213554  1.0000
  C   C43       1.0  0.986500262570415  0.42428955610262203  0.5483797768875672  1.0000
  C   C44       1.0  0.013499738139929754  0.5757104439636527  0.4516202227164272  1.0000
  C   C45       1.0  0.09922064812748234  0.5327039740043615  0.535477937041764  1.0000
  C   C46       1.0  0.900779351274613  0.46729602606449705  0.4645220627027652  1.0000
  C   C47       1.0  0.09050572539259803  0.6144008876644149  0.6097857474929751  1.0000
  C   C48       1.0  0.9094942753177465  0.3855991124018599  0.39021425211101923  1.0000
  C   C49       1.0  0.0021885195198146383  0.21359998411388423  0.5845968553707467  1.0000
  C   C50       1.0  0.9978114798822807  0.7864000159549742  0.4154031443737825  1.0000
  C   C51       1.0  0.19770670983408803  0.7108173337826416  0.5925613860255703  1.0000
  C   C52       1.0  0.8022932909335638  0.2891826654140807  0.4074386142499695  1.0000
  C   C53       1.0  0.23526038588690099  0.2953832422332739  0.4759055086215812  1.0000
  C   C54       1.0  0.7647396148807508  0.7046167569634484  0.5240944916539587  1.0000
  C   C55       1.0  0.98034868220512  0.6030091008135967  0.6938140864979372  1.0000
  C   C56       1.0  0.01965131723203736  0.3969908992427374  0.30618591390443634  1.0000
  C   C57       1.0  0.3036051135598593  0.18591231603334357  0.46041884417568474  1.0000
  C   C58       1.0  0.6963948871855472  0.8140876840204068  0.539581156086154  1.0000
  C   C59       1.0  0.9822311966126372  0.6861307288381873  0.7569526837425313  1.0000
  C   C60       1.0  0.01776880413276935  0.3138692712155631  0.24304731651930725  1.0000
  C   C61       1.0  0.07769342014949326  0.106241309088803  0.5669517249817699  1.0000
  C   C62       1.0  0.922306579287664  0.893758690967531  0.43304827542060365  1.0000
  C   C63       1.0  0.1919901551675365  0.7913963338406587  0.6576525653575205  1.0000
  C   C64       1.0  0.8080098442345588  0.20860366622819984  0.34234743438700876  1.0000
  C   C65       1.0  0.29468079204937897  0.5999494079300697  0.13259208115387738  1.0000
  C   C66       1.0  0.7053192086609655  0.4000505921362051  0.867407918450117  1.0000
  N   N1        1.0  0.2238358726014383  0.09407020040956213  0.5047199876899848  1.0000
  N   N2        1.0  0.7761641268579642  0.905929798789744  0.4952800127260899  1.0000
  N   N3        1.0  0.08531840265210759  0.7774746036811138  0.7381312890101398  1.0000
  N   N4        1.0  0.9146815980932991  0.22252539637263652  0.26186871125169886  1.0000
  O   O1        1.0  0.46828658852001986  0.70484420500557  0.37684735056972135  1.0000
  O   O2        1.0  0.5317134121903246  0.2951557950607048  0.623152649034273  1.0000
  O   O3        1.0  0.5525017165405247  0.002555102483983149  0.358338593988646  1.0000
  O   O4        1.0  0.4474982828838158  0.9974448967278473  0.6416614057695845  1.0000
  O   O5        1.0  0.34927056911492427  0.8981775982303974  0.4522050376414539  1.0000
  O   O6        1.0  0.6507294302871711  0.10182240183846113  0.5477949621030753  1.0000
  O   O7        1.0  0.44103134567847974  0.5149995158504794  0.3823527084925859  1.0000
  O   O8        1.0  0.5589686537236155  0.48500048421837916  0.6176472912519433  1.0000
  O   O9        1.0  0.11686853787476616  0.9204361341100253  0.855626091113251  1.0000
  O   O10       1.0  0.8831314615273291  0.07956386595883312  0.14437390863127822  1.0000
  O   O11       1.0  0.18135736078788017  0.8820600848691919  0.08075096825514544  1.0000
  O   O12       1.0  0.8186426399224644  0.11793991519708286  0.919249031348849  1.0000
  O   O13       1.0  0.08687408667976235  0.7632233524620385  0.9499631512827279  1.0000
  O   O14       1.0  0.9131259140528274  0.23677664674720814  0.050036848334967694  1.0000
  O   O15       1.0  0.21516989225017338  0.8768343395215845  0.22380563299171993  1.0000
  O   O16       1.0  0.7848301071869841  0.1231656605347496  0.7761943674106535  1.0000
  O   O17       1.0  0.22984154708275295  0.6371984305827536  0.2215662357483364  1.0000
  O   O18       1.0  0.7701584523193424  0.3628015694861049  0.7784337639961929  1.0000
