data_image0
_chemical_formula_structural       H76C84N4O12Cl8
_chemical_formula_sum              "H76 C84 N4 O12 Cl8"
_cell_length_a       15.99655528455414
_cell_length_b       5.657833299368926
_cell_length_c       23.034367132264926
_cell_angle_alpha    90.0
_cell_angle_beta     108.94620117300143
_cell_angle_gamma    90.0

_space_group_name_H-M_alt    "P 1"
_space_group_IT_number       1

loop_
  _space_group_symop_operation_xyz
  'x, y, z'

loop_
  _atom_site_type_symbol
  _atom_site_label
  _atom_site_symmetry_multiplicity
  _atom_site_fract_x
  _atom_site_fract_y
  _atom_site_fract_z
  _atom_site_occupancy
  H   H1        1.0  0.08268469524135301  0.7861919262443  0.14560173970509982  1.0000
  H   H2        1.0  0.41731530440275344  0.2861919261885302  0.354398260229583  1.0000
  H   H3        1.0  0.9173153046700459  0.21380807386723968  0.8543982601601514  1.0000
  H   H4        1.0  0.5826846955086453  0.7138080739230096  0.6456017396356681  1.0000
  H   H5        1.0  0.2801820643001585  0.8027749705009177  0.008102955035976345  1.0000
  H   H6        1.0  0.21981793556413765  0.30277497044514784  0.4918970453576888  1.0000
  H   H7        1.0  0.7198179358314301  0.19722502961062205  0.9918970452882572  1.0000
  H   H8        1.0  0.7801820645674509  0.697225029666392  0.5081029549665448  1.0000
  H   H9        1.0  0.30274564918711233  0.9656745349159388  0.07771080490710017  1.0000
  H   H10       1.0  0.19725435108017994  0.465674534860169  0.4222891950234681  1.0000
  H   H11       1.0  0.6972543509444761  0.03432546519560092  0.9222891954171333  1.0000
  H   H12       1.0  0.8027456488312188  0.5343254652513708  0.5777108048417829  1.0000
  H   H13       1.0  0.07207117097945596  0.088053433821666  0.9335139254985483  1.0000
  H   H14       1.0  0.4279288292192668  0.5880534338774359  0.5664860745024015  1.0000
  H   H15       1.0  0.927928828931943  0.9119465645224127  0.06648607436670304  1.0000
  H   H16       1.0  0.5720711709123217  0.41194656446664285  0.433513925821832  1.0000
  H   H17       1.0  0.14905649359723783  0.8714507637667496  0.9263865803573904  1.0000
  H   H18       1.0  0.35094350597829893  0.37145076371097974  0.5736134196476737  1.0000
  H   H19       1.0  0.8509435063141609  0.12854923634479015  0.07361341950786073  1.0000
  H   H20       1.0  0.6490564941532896  0.62854923640056  0.4263865806765599  1.0000
  H   H21       1.0  0.18879504185078272  0.4606013896327899  0.8466085462425611  1.0000
  H   H22       1.0  0.3112049577247541  0.9606013896885597  0.6533914537625031  1.0000
  H   H23       1.0  0.8112049580606162  0.5393986104787499  0.15339145362269022  1.0000
  H   H24       1.0  0.6887950421866447  0.03939861042298002  0.34660854610274805  1.0000
  H   H25       1.0  0.4430198602674444  0.3225129485882042  0.004706840726687842  1.0000
  H   H26       1.0  0.05698013999984793  0.8225129486439741  0.49529315920388056  1.0000
  H   H27       1.0  0.5569801396439543  0.6774870515233357  0.9952931591385632  1.0000
  H   H28       1.0  0.9430198599115508  0.17748705146756574  0.5047068406613706  1.0000
  H   H29       1.0  0.5852718673988665  0.2890250867204582  0.07940988476878919  1.0000
  H   H30       1.0  0.9147281330685841  0.789025086776228  0.42059011541563146  1.0000
  H   H31       1.0  0.4147281331357182  0.7109749133910817  0.9205901150923476  1.0000
  H   H32       1.0  0.08527186706300441  0.21097491333531174  0.5794098849086021  1.0000
  H   H33       1.0  0.6971666104468935  0.07116452512747416  0.16045905650101774  1.0000
  H   H34       1.0  0.8028333900205569  0.571164525183244  0.3395409436834029  1.0000
  H   H35       1.0  0.3028333894645053  0.9288354749840656  0.8395409433642336  1.0000
  H   H36       1.0  0.1971666101110316  0.4288354749282957  0.6604590566408307  1.0000
  H   H37       1.0  0.5107928413577763  0.5063224609886485  0.14708560344811314  1.0000
  H   H38       1.0  0.9892071584864883  0.006322460932878658  0.35291439674042185  1.0000
  H   H39       1.0  0.48920715855362257  0.4936775391228912  0.8529143964171381  1.0000
  H   H40       1.0  0.010792841645100134  0.9936775391786611  0.6470856035838116  1.0000
  H   H41       1.0  0.3987959534293227  0.720848912330964  0.06571332282277265  1.0000
  H   H42       1.0  0.10120404621478372  0.22084891227519407  0.43428667711191016  1.0000
  H   H43       1.0  0.601204046482076  0.2791510877805758  0.9342866770424786  1.0000
  H   H44       1.0  0.898795953696615  0.7791510878363457  0.565713322753341  1.0000
  H   H45       1.0  0.06740634390039393  0.5855352225328936  0.7624900273630467  1.0000
  H   H46       1.0  0.43259365629832863  0.08553522247712371  0.737509972637903  1.0000
  H   H47       1.0  0.9325936560110047  0.4144647775786462  0.23750997250220443  1.0000
  H   H48       1.0  0.5674063436130701  0.914464777634416  0.2624900272273482  1.0000
  H   H49       1.0  0.9248628610087334  0.5123727117098599  0.6814694744188685  1.0000
  H   H50       1.0  0.5751371393901473  0.01237271165408993  0.8185305258359333  1.0000
  H   H51       1.0  0.07513713890266539  0.48762728840167996  0.3185305254463826  1.0000
  H   H52       1.0  0.4248628613646269  0.9876272884574497  0.18146947448418577  1.0000
  H   H53       1.0  0.9033092551796168  0.8424331749985701  0.7642667144872511  1.0000
  H   H54       1.0  0.596690745219264  0.3424331749428002  0.7357332857675508  1.0000
  H   H55       1.0  0.0966907449519717  0.15756682511296968  0.2357332858369824  1.0000
  H   H56       1.0  0.4033092546921347  0.6575668251687395  0.26426671409770036  1.0000
  H   H57       1.0  0.04589434934294144  0.9128535566037403  0.8446625059756783  1.0000
  H   H58       1.0  0.45410565085578125  0.41285355654797057  0.6553374940252715  1.0000
  H   H59       1.0  0.9541056505684574  0.08714644350779932  0.155337493889573  1.0000
  H   H60       1.0  0.5458943492758073  0.5871464435635692  0.344662506298962  1.0000
  H   H61       1.0  0.08944189792737484  0.22735015189356578  0.09224916864674794  1.0000
  H   H62       1.0  0.41055810171673157  0.7273501519493357  0.40775083128793477  1.0000
  H   H63       1.0  0.9105581019840241  0.7726498482179739  0.9077508312185033  1.0000
  H   H64       1.0  0.5894418981946672  0.27264984816220406  0.5922491685773164  1.0000
  H   H65       1.0  0.9856347047385016  0.36705486360505507  0.07911104529092898  1.0000
  H   H66       1.0  0.5143652948855735  0.8670548636608248  0.42088895443862373  1.0000
  H   H67       1.0  0.014365295172897261  0.6329451365064847  0.9208889545743222  1.0000
  H   H68       1.0  0.4856347050258254  0.13294513645071482  0.5791110454266275  1.0000
  H   H69       1.0  0.07028821355356842  0.4025528589281767  0.151973625921598  1.0000
  H   H70       1.0  0.4297117860905381  0.9025528589839467  0.34802637401308484  1.0000
  H   H71       1.0  0.9297117863578305  0.5974471411833631  0.8480263739436531  1.0000
  H   H72       1.0  0.5702882138208608  0.09744714112759319  0.6519736258521663  1.0000
  H   H73       1.0  0.1502302082686289  0.9396052762093503  0.02955266570998349  1.0000
  H   H74       1.0  0.34976979137547753  0.4396052761535804  0.4704473342246993  1.0000
  H   H75       1.0  0.84976979164277  0.060394723902189466  0.9704473341552678  1.0000
  H   H76       1.0  0.6502302085359213  0.5603947239579593  0.5295526656405519  1.0000
  C   C1        1.0  0.27478053395840646  0.9799416431407435  0.02747356271057624  1.0000
  C   C2        1.0  0.22521946568569998  0.47994164308497356  0.47252643722410653  1.0000
  C   C3        1.0  0.7252194661731821  0.020058356970796276  0.9725264376136574  1.0000
  C   C4        1.0  0.7747805342256988  0.5200583570265661  0.5274735626411446  1.0000
  C   C5        1.0  0.32636877039132645  0.15800273579988852  0.004491629097410952  1.0000
  C   C6        1.0  0.17363122987596585  0.6580027358556584  0.4955083708331574  1.0000
  C   C7        1.0  0.6736312295200724  0.8419972643116513  0.9955083707678403  1.0000
  C   C8        1.0  0.8263687700354329  0.3419972642558814  0.5044916290320938  1.0000
  C   C9        1.0  0.2754404936302223  0.31728176052840373  0.9540641428373987  1.0000
  C   C10       1.0  0.22455950656850027  0.8172817605841736  0.545935857163551  1.0000
  C   C11       1.0  0.7245595062811765  0.682718237815675  0.04593585702785254  1.0000
  C   C12       1.0  0.7754404933428984  0.18271823775990514  0.4540641427017001  1.0000
  C   C13       1.0  0.1857320253959201  0.2317240029228565  0.9163954489729015  1.0000
  C   C14       1.0  0.31426797480280255  0.7317240029786264  0.5836045510280482  1.0000
  C   C15       1.0  0.8142679745154787  0.7682759971886832  0.08360455089234971  1.0000
  C   C16       1.0  0.6857320257317822  0.2682759971329134  0.4163954488330886  1.0000
  C   C17       1.0  0.1429934732512186  0.05019023448988392  0.9451931036715407  1.0000
  C   C18       1.0  0.3570065263243182  0.5501902345456537  0.5548068963335234  1.0000
  C   C19       1.0  0.8570065266601803  0.9498097656216559  0.054806896193710514  1.0000
  C   C20       1.0  0.6429934738072703  0.449809765565886  0.44519310399071016  1.0000
  C   C21       1.0  0.1501847407909688  0.3215474022896574  0.8589899781372841  1.0000
  C   C22       1.0  0.34981525878456793  0.8215474023454273  0.64101002186778  1.0000
  C   C23       1.0  0.8498152593406195  0.6784525978218824  0.14101002218694944  1.0000
  C   C24       1.0  0.6501847411268309  0.17845259776611247  0.3589899779974712  1.0000
  C   C25       1.0  0.41587936693594885  0.1779723874353657  0.024640739348496945  1.0000
  C   C26       1.0  0.08412063270815762  0.6779723874911356  0.47535926058618583  1.0000
  C   C27       1.0  0.5841206331956397  0.8220276126761741  0.9753592609757367  1.0000
  C   C28       1.0  0.915879367203241  0.3220276126204042  0.5246407392790653  1.0000
  C   C29       1.0  0.48025356708706546  0.03309050127385028  0.06943164718656762  1.0000
  C   C30       1.0  0.019746432557041005  0.5330905013296201  0.43056835274811517  1.0000
  C   C31       1.0  0.5197464328243334  0.9669094988376895  0.9305683526786837  1.0000
  C   C32       1.0  0.9802535675745475  0.46690949878191956  0.5694316475761184  1.0000
  C   C33       1.0  0.5669858261163969  0.12154588225084403  0.09537871148256344  1.0000
  C   C34       1.0  0.9330141737278677  0.6215458823066139  0.40462128870597164  1.0000
  C   C35       1.0  0.43301417401519154  0.8784541178606957  0.90462128884167  1.0000
  C   C36       1.0  0.06698582618353105  0.3784541178049258  0.5953787111592796  1.0000
  C   C37       1.0  0.6309898829543641  0.9983229800407897  0.14079761388119308  1.0000
  C   C38       1.0  0.8690101168899005  0.49832297998501973  0.3592023863073419  1.0000
  C   C39       1.0  0.36901011695703456  0.0016770200707501089  0.8592023859840581  1.0000
  C   C40       1.0  0.13098988324168798  0.50167702012652  0.6407976140168916  1.0000
  C   C41       1.0  0.6091025990166964  0.7797294876984209  0.16007529438642767  1.0000
  C   C42       1.0  0.8908974008275684  0.2797294876426511  0.3399247058021074  1.0000
  C   C43       1.0  0.3908974011148922  0.2202705124131188  0.8399247059378059  1.0000
  C   C44       1.0  0.1091025990838304  0.7202705124688886  0.6600752940631438  1.0000
  C   C45       1.0  0.5254820325388809  0.6808649789009648  0.13309588553012575  1.0000
  C   C46       1.0  0.9745179673053838  0.18086497884519487  0.3669041146584092  1.0000
  C   C47       1.0  0.47451796737251783  0.319135021210575  0.8669041143351253  1.0000
  C   C48       1.0  0.025482032826204728  0.8191350212663449  0.6330958856658243  1.0000
  C   C49       1.0  0.4619769923830499  0.8059707433424429  0.08789828925247853  1.0000
  C   C50       1.0  0.03802300726105654  0.305970743286673  0.4121017106822043  1.0000
  C   C51       1.0  0.5380230075283489  0.19402925676909688  0.9121017106127727  1.0000
  C   C52       1.0  0.9619769926503422  0.6940292568248668  0.5878982891830469  1.0000
  C   C53       1.0  0.06697331124205502  0.2615893155008795  0.8120807689027871  1.0000
  C   C54       1.0  0.43302668895666757  0.7615893155566493  0.6879192310981627  1.0000
  C   C55       1.0  0.9330266886693438  0.7384106846106603  0.18791923096246418  1.0000
  C   C56       1.0  0.5669733111749208  0.2384106845548904  0.31208076922607086  1.0000
  C   C57       1.0  0.03105683772937247  0.4239126681706087  0.7638627392264266  1.0000
  C   C58       1.0  0.4689431624693502  0.9239126682263786  0.7361372607745231  1.0000
  C   C59       1.0  0.9689431621820264  0.5760873319409311  0.23613726063882456  1.0000
  C   C60       1.0  0.5310568374420485  0.07608733188516117  0.26386273909072805  1.0000
  C   C61       1.0  0.9505403475590669  0.38445861779678475  0.7182148872165519  1.0000
  C   C62       1.0  0.5494596519964384  0.8844586178525548  0.7817851125833821  1.0000
  C   C63       1.0  0.049459652352332004  0.615541382314755  0.2817851126486993  1.0000
  C   C64       1.0  0.4505403479149604  0.1155413822589851  0.2182148872818691  1.0000
  C   C65       1.0  0.9040713072185493  0.17592465301355228  0.7189984035481533  1.0000
  C   C66       1.0  0.5959286923369558  0.6759246530693221  0.7810015962517807  1.0000
  C   C67       1.0  0.09592869269284941  0.8240753470979875  0.28100159631709787  1.0000
  C   C68       1.0  0.40407130757444293  0.32407534704221763  0.21899840361347053  1.0000
  C   C69       1.0  0.9386361797822222  0.007593235383020544  0.7649713958716486  1.0000
  C   C70       1.0  0.5613638199934728  0.5075932354387904  0.7350286043872678  1.0000
  C   C71       1.0  0.061363820129176634  0.9924067647285192  0.23502860399360254  1.0000
  C   C72       1.0  0.43863618013811567  0.4924067646727493  0.2649713959369659  1.0000
  C   C73       1.0  0.0191681565966309  0.05016161929543871  0.8106981753493355  1.0000
  C   C74       1.0  0.4808318436020918  0.5501616193512087  0.6893018246516143  1.0000
  C   C75       1.0  0.9808318433147679  0.9498383808161011  0.1893018245159157  1.0000
  C   C76       1.0  0.519168156309307  0.44983838076033117  0.31069817521363696  1.0000
  C   C77       1.0  0.08706624090977003  0.5969683518913028  0.07543016773179839  1.0000
  C   C78       1.0  0.4129337587343364  0.0969683518355329  0.4245698322028844  1.0000
  C   C79       1.0  0.9129337590016288  0.403031648220237  0.9245698321334527  1.0000
  C   C80       1.0  0.5870662411770624  0.9030316482760069  0.5754301676623668  1.0000
  C   C81       1.0  0.05718291393991371  0.3854188705494783  0.10243480526872296  1.0000
  C   C82       1.0  0.4428170865475683  0.8854188706052482  0.3975651951208278  1.0000
  C   C83       1.0  0.9428170861916748  0.6145811295620615  0.8975651950555106  1.0000
  C   C84       1.0  0.5571829135840202  0.11458112950629158  0.6024348052034058  1.0000
  N   N1        1.0  0.1834042074554217  0.05705380008916225  0.01141144945431714  1.0000
  N   N2        1.0  0.3165957921886848  0.5570538001449321  0.48858855048036565  1.0000
  N   N3        1.0  0.8165957926761668  0.9429462000223775  0.9885885508699165  1.0000
  N   N4        1.0  0.6834042077227139  0.44294619996660767  0.5114114493848855  1.0000
  O   O1        1.0  0.30702803672881884  0.5034551336671085  0.9411502320343874  1.0000
  O   O2        1.0  0.1929719634699038  0.0034551336113385392  0.5588497679665623  1.0000
  O   O3        1.0  0.6929719634027697  0.49654486644443135  0.05884976828984607  1.0000
  O   O4        1.0  0.8070280364414951  0.9965448665002011  0.441150231898689  1.0000
  O   O5        1.0  0.099683480472923  0.8024166814010557  0.10851968943248913  1.0000
  O   O6        1.0  0.40031651979436933  0.3024166813452859  0.39148031049807924  1.0000
  O   O7        1.0  0.9003165194384758  0.197583318710484  0.8914803104327621  1.0000
  O   O8        1.0  0.5996834807402153  0.6975833187662539  0.6085196893630574  1.0000
  O   O9        1.0  0.09984360323709407  0.6000060005971982  0.026088538819744333  1.0000
  O   O10       1.0  0.4001563970301983  0.1000060005414283  0.4739114611108241  1.0000
  O   O11       1.0  0.9001563966743047  0.39999399951434156  0.9739114610455069  1.0000
  O   O12       1.0  0.5998436028812004  0.8999939995701115  0.5260885387544271  1.0000
  Cl  Cl1       1.0  0.8052139841898583  0.12137309349085901  0.6612926936976007  1.0000
  Cl  Cl2       1.0  0.6947860159888328  0.6213730935466288  0.838707306098219  1.0000
  Cl  Cl3       1.0  0.19478601572154045  0.8786269066206807  0.33870730616765055  1.0000
  Cl  Cl4       1.0  0.305213983922566  0.3786269065649109  0.16129269376703229  1.0000
  Cl  Cl5       1.0  0.6862464099476546  0.6227508453444539  0.21752953510228734  1.0000
  Cl  Cl6       1.0  0.8137535902996064  0.12275084528868406  0.2824704646231509  1.0000
  Cl  Cl7       1.0  0.31375359058693014  0.3772491547670858  0.7824704647588494  1.0000
  Cl  Cl8       1.0  0.18624640961179256  0.8772491548228556  0.7175295352421003  1.0000
