data_image0
_chemical_formula_structural       H24C22O6
_chemical_formula_sum              "H24 C22 O6"
_cell_length_a       7.403683894580584
_cell_length_b       9.375058474196091
_cell_length_c       6.838715824758837
_cell_angle_alpha    94.48467248921641
_cell_angle_beta     108.12473133954451
_cell_angle_gamma    87.83019681654902

_space_group_name_H-M_alt    "P 1"
_space_group_IT_number       1

loop_
  _space_group_symop_operation_xyz
  'x, y, z'

loop_
  _atom_site_type_symbol
  _atom_site_label
  _atom_site_symmetry_multiplicity
  _atom_site_fract_x
  _atom_site_fract_y
  _atom_site_fract_z
  _atom_site_occupancy
  H   H1        1.0  0.5422595701639726  0.8795606205556702  0.36302745957745136  1.0000
  H   H2        1.0  0.4577404300325069  0.12043937967786514  0.6369725412929133  1.0000
  H   H3        1.0  0.6644056640747548  0.7239788356619948  0.29713308396713617  1.0000
  H   H4        1.0  0.33559433611135336  0.2760211645657996  0.702866915436918  1.0000
  H   H5        1.0  0.5966253829475769  0.8643762373635963  0.1284446669996908  1.0000
  H   H6        1.0  0.4033746158276534  0.13562376287591188  0.8715553334033961  1.0000
  H   H7        1.0  0.0627614891191361  0.33791390239660835  0.7761601045716724  1.0000
  H   H8        1.0  0.9372385110669719  0.6620860978311862  0.2238398948323819  1.0000
  H   H9        1.0  0.8226462310510005  0.33217340900395276  0.6145804493372373  1.0000
  H   H10       1.0  0.17735376915790854  0.6678265901595695  0.3854195514305208  1.0000
  H   H11       1.0  0.007089878641873758  0.37379478528642823  0.5135421636055957  1.0000
  H   H12       1.0  0.9929101215546059  0.626205214947107  0.48645783726476893  1.0000
  H   H13       1.0  0.20077679371200605  0.30065184251938504  0.22511499131641163  1.0000
  H   H14       1.0  0.7992232064741019  0.6993481577084096  0.7748850080876426  1.0000
  H   H15       1.0  0.3294300723421238  0.07124333571253604  0.20278268015578435  1.0000
  H   H16       1.0  0.6705699278543558  0.9287566645209993  0.7972173207145804  1.0000
  H   H17       1.0  0.73723871072497  0.17893587002727582  0.9390621712534605  1.0000
  H   H18       1.0  0.26276128946113786  0.8210641302005187  0.06093782815059387  1.0000
  H   H19       1.0  0.5310105453927223  0.28429865719660924  0.36201189043287085  1.0000
  H   H20       1.0  0.46898945338456577  0.7157013419671452  0.6379881084012992  1.0000
  H   H21       1.0  0.7549137453006532  0.3463417484789869  0.21085764664305084  1.0000
  H   H22       1.0  0.24508625489788421  0.6536582506787948  0.7891423526583969  1.0000
  H   H23       1.0  0.18897837259696812  0.5288215223565074  0.06678893032463987  1.0000
  H   H24       1.0  0.8110216275891399  0.4711784778712871  0.9332110690794143  1.0000
  C   C1        1.0  0.820653433119802  0.06921583963567131  0.45341500638198917  1.0000
  C   C2        1.0  0.17934656707667768  0.930784160597864  0.5465849944883755  1.0000
  C   C3        1.0  0.8335331782311824  0.9145643360249442  0.3957897338631817  1.0000
  C   C4        1.0  0.1664668219549256  0.08543566420285033  0.6042102655408725  1.0000
  C   C5        1.0  0.9937029786709749  0.15218745689751287  0.5636327697453494  1.0000
  C   C6        1.0  0.006297021515133154  0.8478125433302817  0.43636722965870484  1.0000
  C   C7        1.0  0.6501401325916709  0.8403223514393101  0.2917840199992249  1.0000
  C   C8        1.0  0.34985986618561715  0.1596776477244443  0.708215978834945  1.0000
  C   C9        1.0  0.9697564006996177  0.30734179854030896  0.6206652910595688  1.0000
  C   C10       1.0  0.03024359949686189  0.6926582016932262  0.3793347098107959  1.0000
  C   C11       1.0  0.03653248544724521  0.1423899009724694  0.08095467587499786  1.0000
  C   C12       1.0  0.9634675147492345  0.8576100992610658  0.9190453249953668  1.0000
  C   C13       1.0  0.18477074686049988  0.04124061351392265  0.11346809791296839  1.0000
  C   C14       1.0  0.81522925333598  0.9587593867196126  0.8865319029573961  1.0000
  C   C15       1.0  0.8520680405026275  0.09983555518074094  0.9665594271675949  1.0000
  C   C16       1.0  0.14793195968348052  0.9001644450470536  0.03344057223645941  1.0000
  C   C17       1.0  0.46797078395211655  0.42846293338623365  0.1580743691181002  1.0000
  C   C18       1.0  0.5320292162339915  0.5715370668415609  0.8419256302859541  1.0000
  C   C19       1.0  0.6422036043023314  0.4133606587246421  0.11897467824075515  1.0000
  C   C20       1.0  0.35779639589620615  0.5866393404331394  0.8810253210606928  1.0000
  C   C21       1.0  0.3258675516127406  0.5159606894350601  0.03890913168439015  1.0000
  C   C22       1.0  0.6741324485837389  0.48403931079847506  0.9610908691859745  1.0000
  O   O1        1.0  0.6601268633288541  0.1287262213648663  0.4059056465438276  1.0000
  O   O2        1.0  0.3398731368696835  0.8712737777929154  0.5940943527576202  1.0000
  O   O3        1.0  0.06296839140712751  0.2817648732813988  0.15753050601485727  1.0000
  O   O4        1.0  0.9370316087789805  0.7182351269463957  0.8424694933891971  1.0000
  O   O5        1.0  0.4304496362428817  0.3580800244813628  0.3109542776703837  1.0000
  O   O6        1.0  0.5695503639432263  0.6419199757464317  0.6890457217336705  1.0000
