data_image0
_chemical_formula_structural       H36C30N12O12
_chemical_formula_sum              "H36 C30 N12 O12"
_cell_length_a       7.747809390746694
_cell_length_b       27.570415002733107
_cell_length_c       3.8090289912945785
_cell_angle_alpha    90.0
_cell_angle_beta     90.0
_cell_angle_gamma    90.0

_space_group_name_H-M_alt    "P 1"
_space_group_IT_number       1

loop_
  _space_group_symop_operation_xyz
  'x, y, z'

loop_
  _atom_site_type_symbol
  _atom_site_label
  _atom_site_symmetry_multiplicity
  _atom_site_fract_x
  _atom_site_fract_y
  _atom_site_fract_z
  _atom_site_occupancy
  H   H1        1.0  0.8369494605461706  0.4058957744702299  0.5870774113588415  1.0000
  H   H2        1.0  0.16305053935745456  0.5941042257933459  0.5870774113588415  1.0000
  H   H3        1.0  0.6630505386639235  0.9058957744206638  0.41292259092662864  1.0000
  H   H4        1.0  0.3369494612397017  0.09410422548020415  0.41292259092662864  1.0000
  H   H5        1.0  0.6204325361619056  0.462025317309777  0.8549749732656059  1.0000
  H   H6        1.0  0.37956746374171957  0.5379746829537987  0.8549749732656059  1.0000
  H   H7        1.0  0.8795674630481884  0.962025317260211  0.1450250263945231  1.0000
  H   H8        1.0  0.12043253685543673  0.037974682640657065  0.1450250263945231  1.0000
  H   H9        1.0  0.23187141156900132  0.35812649969255816  0.7994820981829828  1.0000
  H   H10       1.0  0.7681285883346238  0.6418735002083099  0.7994820981829828  1.0000
  H   H11       1.0  0.26812858902815495  0.8581264996429923  0.20051790147714627  1.0000
  H   H12       1.0  0.7318714108754701  0.14187350025787585  0.20051790147714627  1.0000
  H   H13       1.0  0.43501037519395924  0.29666302734975836  0.5405215803569541  1.0000
  H   H14       1.0  0.5649896260003534  0.7033369725511097  0.5405215803569541  1.0000
  H   H15       1.0  0.06498962540319705  0.7966630276629  0.45947841930317496  1.0000
  H   H16       1.0  0.9350103745004281  0.20333697260067568  0.45947841930317496  1.0000
  H   H17       1.0  0.9411335259110267  0.36461283259622584  0.21483969848228254  1.0000
  H   H18       1.0  0.05886647399259841  0.6353871676673499  0.21483969848228254  1.0000
  H   H19       1.0  0.5588664732990674  0.8646128325466598  0.7851603038031876  1.0000
  H   H20       1.0  0.4411335266045579  0.13538716735420822  0.7851603038031876  1.0000
  H   H21       1.0  0.9852196930808003  0.2736460531788185  0.9265397659261506  1.0000
  H   H22       1.0  0.014780306822824876  0.7263539467220496  0.9265397659261506  1.0000
  H   H23       1.0  0.5147803074199812  0.7736460534919601  0.07346023373397848  1.0000
  H   H24       1.0  0.485219692483644  0.22635394677161552  0.07346023373397848  1.0000
  H   H25       1.0  0.10576251927140244  0.27829159260893965  0.27904077192091936  1.0000
  H   H26       1.0  0.8942374806322227  0.7217084072919284  0.27904077192091936  1.0000
  H   H27       1.0  0.3942374800350664  0.7782915929220813  0.7209592277392097  1.0000
  H   H28       1.0  0.6057625198685588  0.22170840734149438  0.7209592277392097  1.0000
  H   H29       1.0  0.09248106837214602  0.519253855576016  0.6133696554527786  1.0000
  H   H30       1.0  0.9075189315314792  0.48074614432485213  0.6133696554527786  1.0000
  H   H31       1.0  0.4075189322250103  0.01925385562558188  0.3866303442073505  1.0000
  H   H32       1.0  0.5924810676786149  0.9807461442752862  0.3866303442073505  1.0000
  H   H33       1.0  0.3319282471083289  0.4398625820031294  0.9513829530523894  1.0000
  H   H34       1.0  0.6680717527952962  0.5601374178977387  0.9513829530523894  1.0000
  H   H35       1.0  0.16807175348882736  0.9398625819535634  0.04861704660773964  1.0000
  H   H36       1.0  0.8319282464147978  0.06013741794730467  0.04861704660773964  1.0000
  C   C1        1.0  0.6513488762419904  0.3470059456504951  0.5358646034632258  1.0000
  C   C2        1.0  0.34865112366163464  0.6529940546130806  0.5358646034632258  1.0000
  C   C3        1.0  0.8486511229681035  0.8470059456009292  0.4641353961969033  1.0000
  C   C4        1.0  0.15134887693552163  0.15299405466264657  0.4641353961969033  1.0000
  C   C5        1.0  0.7043183479084131  0.3940068725451951  0.6231362127788115  1.0000
  C   C6        1.0  0.2956816532858995  0.6059931273556729  0.6231362127788115  1.0000
  C   C7        1.0  0.7956816525923684  0.8940068724956292  0.37686378688131755  1.0000
  C   C8        1.0  0.2043183473112568  0.10599312740523888  0.37686378688131755  1.0000
  C   C9        1.0  0.5852457580352272  0.42569279348303374  0.7674431506509707  1.0000
  C   C10       1.0  0.41475424186839804  0.574307206780542  0.7674431506509707  1.0000
  C   C11       1.0  0.9147542424655544  0.9256927934334678  0.23255684900915838  1.0000
  C   C12       1.0  0.08524575743807083  0.07430720683010794  0.23255684900915838  1.0000
  C   C13       1.0  0.36587112912012487  0.3669620609264334  0.7374507509446161  1.0000
  C   C14       1.0  0.6341288707835002  0.6330379389744347  0.7374507509446161  1.0000
  C   C15       1.0  0.13412887018634395  0.8669620608768673  0.26254924871551305  1.0000
  C   C16       1.0  0.8658711297172812  0.13303793902400066  0.26254924871551305  1.0000
  C   C17       1.0  0.47984536176640535  0.3333165546869356  0.5961506712576206  1.0000
  C   C18       1.0  0.5201546381372197  0.6666834452139324  0.5961506712576206  1.0000
  C   C19       1.0  0.020154638830750925  0.8333165546373696  0.40384932840250853  1.0000
  C   C20       1.0  0.9798453610728742  0.16668344526349843  0.40384932840250853  1.0000
  C   C21       1.0  0.7759430565212457  0.3100570810832039  0.3956452112714969  1.0000
  C   C22       1.0  0.22405694338237947  0.6899429188176642  0.3956452112714969  1.0000
  C   C23       1.0  0.7240569439795358  0.8100570810336378  0.6043547883886322  1.0000
  C   C24       1.0  0.27594305721477685  0.18994291886723016  0.6043547883886322  1.0000
  C   C25       1.0  0.09903740158042909  0.4635254887796623  0.22472802174946746  1.0000
  C   C26       1.0  0.900962598323196  0.5364745111212057  0.22472802174946746  1.0000
  C   C27       1.0  0.40096259772603976  0.9635254887300965  0.7752719779106616  1.0000
  C   C28       1.0  0.5990374021775853  0.03647451117077168  0.7752719779106616  1.0000
  C   C29       1.0  0.0  0.49999999995043404  0.4481955542742603  1.0000
  C   C30       1.0  0.5000000005971563  0.0  0.5518044453858688  1.0000
  N   N1        1.0  0.9180717750355603  0.3279592958286501  0.23907171934926724  1.0000
  N   N2        1.0  0.08192822486806489  0.6720407040722179  0.23907171934926724  1.0000
  N   N3        1.0  0.5819282241745337  0.8279592957790841  0.7609282803108618  1.0000
  N   N4        1.0  0.4180717757290914  0.17204070412178396  0.7609282803108618  1.0000
  N   N5        1.0  0.420822839794433  0.41184371613101894  0.8182771192142269  1.0000
  N   N6        1.0  0.5791771601091921  0.5881562841325567  0.8182771192142269  1.0000
  N   N7        1.0  0.07917715951203581  0.911843716081453  0.18172288044590215  1.0000
  N   N8        1.0  0.9208228403915893  0.0881562838194151  0.18172288044590215  1.0000
  N   N9        1.0  0.04511649711174836  0.2983298782112867  0.08649394392979583  1.0000
  N   N10       1.0  0.9548835027918768  0.7016701216895814  0.08649394392979583  1.0000
  N   N11       1.0  0.4548835021947205  0.7983298781617207  0.9135060557303333  1.0000
  N   N12       1.0  0.5451164977089047  0.20167012173914733  0.9135060557303333  1.0000
  O   O1        1.0  0.7470329622347865  0.26560508208795813  0.4245439753007484  1.0000
  O   O2        1.0  0.25296703766883855  0.7343949178129099  0.4245439753007484  1.0000
  O   O3        1.0  0.7529670369753074  0.7656050820383922  0.5754560243593807  1.0000
  O   O4        1.0  0.24703296292831772  0.2343949178624759  0.5754560243593807  1.0000
  O   O5        1.0  0.2519002535517859  0.4768105945701878  0.13277240502916618  1.0000
  O   O6        1.0  0.7480997463518392  0.5231894053306803  0.13277240502916618  1.0000
  O   O7        1.0  0.24809974704537038  0.9768105945206219  0.8672275946309629  1.0000
  O   O8        1.0  0.7519002528582547  0.023189405380246213  0.8672275946309629  1.0000
  O   O9        1.0  0.03128620462572309  0.42374299367063806  0.1386439250546409  1.0000
  O   O10       1.0  0.9687137952779021  0.5762570065929377  0.1386439250546409  1.0000
  O   O11       1.0  0.46871379468074575  0.9237429936210722  0.8613560746054881  1.0000
  O   O12       1.0  0.5312862052228794  0.07625700627979598  0.8613560746054881  1.0000
