data_image0
_chemical_formula_structural       H32C96N48S32
_chemical_formula_sum              "H32 C96 N48 S32"
_cell_length_a       6.993668848951255
_cell_length_b       16.40395850858215
_cell_length_c       24.89540983799257
_cell_angle_alpha    90.0
_cell_angle_beta     90.0
_cell_angle_gamma    90.0

_space_group_name_H-M_alt    "P 1"
_space_group_IT_number       1

loop_
  _space_group_symop_operation_xyz
  'x, y, z'

loop_
  _atom_site_type_symbol
  _atom_site_label
  _atom_site_symmetry_multiplicity
  _atom_site_fract_x
  _atom_site_fract_y
  _atom_site_fract_z
  _atom_site_occupancy
  H   H1        1.0  0.14179983230814708  0.49196652782179806  0.057008829709406426  1.0000
  H   H2        1.0  0.641799831668193  0.49196652782179806  0.4429911703309108  1.0000
  H   H3        1.0  0.35820016848176345  0.9919665275602103  0.057008829709406426  1.0000
  H   H4        1.0  0.14179983230814708  0.008033471916614247  0.5570088297497237  1.0000
  H   H5        1.0  0.8582001678418093  0.5080334722646355  0.942991170371228  1.0000
  H   H6        1.0  0.35820016848176345  0.5080334722646355  0.5570088297497237  1.0000
  H   H7        1.0  0.641799831668193  0.008033471916614247  0.942991170371228  1.0000
  H   H8        1.0  0.8582001678418093  0.9919665275602103  0.4429911703309108  1.0000
  H   H9        1.0  0.1929933485773209  0.3881617297842309  0.9804522905563938  1.0000
  H   H10       1.0  0.6929933479373668  0.3881617297842309  0.5195477095645579  1.0000
  H   H11       1.0  0.307006650782725  0.8881617295226432  0.9804522905563938  1.0000
  H   H12       1.0  0.1929933485773209  0.11183827056379028  0.4804522905160767  1.0000
  H   H13       1.0  0.8070066515726355  0.6118382703022025  0.019547709524240578  1.0000
  H   H14       1.0  0.307006650782725  0.6118382703022025  0.4804522905160767  1.0000
  H   H15       1.0  0.6929933479373668  0.11183827056379028  0.019547709524240578  1.0000
  H   H16       1.0  0.8070066515726355  0.8881617295226432  0.5195477095645579  1.0000
  H   H17       1.0  0.8525574814561195  0.02402342579651292  0.18104494681271072  1.0000
  H   H18       1.0  0.35255748066620896  0.02402342579651292  0.31895505322760653  1.0000
  H   H19       1.0  0.6474425180538828  0.5240234255349252  0.18104494681271072  1.0000
  H   H20       1.0  0.8525574814561195  0.47597657394189935  0.681044946853028  1.0000
  H   H21       1.0  0.14744251869383687  0.9759765742899205  0.8189550532679238  1.0000
  H   H22       1.0  0.6474425180538828  0.9759765742899205  0.681044946853028  1.0000
  H   H23       1.0  0.35255748066620896  0.47597657394189935  0.8189550532679238  1.0000
  H   H24       1.0  0.14744251869383687  0.5240234255349252  0.31895505322760653  1.0000
  H   H25       1.0  0.8088651639329897  0.12946221114183726  0.25663831692578326  1.0000
  H   H26       1.0  0.3088651645729439  0.12946221114183726  0.24336168311453396  1.0000
  H   H27       1.0  0.6911348355770126  0.6294622114898585  0.25663831692578326  1.0000
  H   H28       1.0  0.8088651639329897  0.370537788596575  0.7566383169661005  1.0000
  H   H29       1.0  0.1911348362169667  0.8705377889445962  0.7433616827531707  1.0000
  H   H30       1.0  0.6911348355770126  0.8705377889445962  0.7566383169661005  1.0000
  H   H31       1.0  0.3088651645729439  0.370537788596575  0.7433616827531707  1.0000
  H   H32       1.0  0.1911348362169667  0.6294622114898585  0.24336168311453396  1.0000
  C   C1        1.0  0.11174871542812553  0.42714816526353383  0.06018975022910596  1.0000
  C   C2        1.0  0.6117487147881714  0.42714816526353383  0.43981024981121125  1.0000
  C   C3        1.0  0.388251285361785  0.9271481650019461  0.06018975022910596  1.0000
  C   C4        1.0  0.11174871542812553  0.07285183508448735  0.5601897502694232  1.0000
  C   C5        1.0  0.8882512847218308  0.5728518348228996  0.9398102498515285  1.0000
  C   C6        1.0  0.388251285361785  0.5728518348228996  0.5601897502694232  1.0000
  C   C7        1.0  0.6117487147881714  0.07285183508448735  0.9398102498515285  1.0000
  C   C8        1.0  0.8882512847218308  0.9271481650019461  0.43981024981121125  1.0000
  C   C9        1.0  0.1393136179369008  0.3726117245908779  0.02022872663182506  1.0000
  C   C10       1.0  0.6393136187268114  0.3726117245908779  0.4797712734084921  1.0000
  C   C11       1.0  0.3606863814231451  0.8726117249388992  0.02022872663182506  1.0000
  C   C12       1.0  0.1393136179369008  0.12738827514753434  0.5202287266721423  1.0000
  C   C13       1.0  0.8606863822130556  0.6273882754955555  0.9797712734488094  1.0000
  C   C14       1.0  0.3606863814231451  0.6273882754955555  0.5202287266721423  1.0000
  C   C15       1.0  0.6393136187268114  0.12738827514753434  0.9797712734488094  1.0000
  C   C16       1.0  0.8606863822130556  0.8726117249388992  0.4797712734084921  1.0000
  C   C17       1.0  0.018229863717256  0.28863753450259394  0.09958034176311034  1.0000
  C   C18       1.0  0.5182298630773019  0.28863753450259394  0.4004196582772069  1.0000
  C   C19       1.0  0.48177013707265454  0.7886375342410062  0.09958034176311034  1.0000
  C   C20       1.0  0.018229863717256  0.21136246584542723  0.5995803418034276  1.0000
  C   C21       1.0  0.9817701364327004  0.7113624655838395  0.9004196579158437  1.0000
  C   C22       1.0  0.48177013707265454  0.7113624655838395  0.5995803418034276  1.0000
  C   C23       1.0  0.5182298630773019  0.21136246584542723  0.9004196579158437  1.0000
  C   C24       1.0  0.9817701364327004  0.7886375342410062  0.4004196582772069  1.0000
  C   C25       1.0  0.9637467666217461  0.2263904159509477  0.1338573645377155  1.0000
  C   C26       1.0  0.46374676726170017  0.2263904159509477  0.36614263550260173  1.0000
  C   C27       1.0  0.5362532328882562  0.7263904156893599  0.1338573645377155  1.0000
  C   C28       1.0  0.9637467666217461  0.2736095843970735  0.6338573645780327  1.0000
  C   C29       1.0  0.03625323352821037  0.7736095841354858  0.866142635542919  1.0000
  C   C30       1.0  0.5362532328882562  0.7736095841354858  0.6338573645780327  1.0000
  C   C31       1.0  0.46374676726170017  0.2736095843970735  0.866142635542919  1.0000
  C   C32       1.0  0.03625323352821037  0.7263904156893599  0.36614263550260173  1.0000
  C   C33       1.0  0.8788168488877844  0.0889544343358696  0.1765934748055748  1.0000
  C   C34       1.0  0.3788168495277386  0.0889544343358696  0.32340652523474245  1.0000
  C   C35       1.0  0.6211831506222177  0.5889544340742818  0.1765934748055748  1.0000
  C   C36       1.0  0.8788168488877844  0.41104556601215164  0.6765934748458919  1.0000
  C   C37       1.0  0.12118315126217198  0.9110455657505638  0.8234065252750596  1.0000
  C   C38       1.0  0.6211831506222177  0.9110455657505638  0.6765934748458919  1.0000
  C   C39       1.0  0.3788168495277386  0.41104556601215164  0.8234065252750596  1.0000
  C   C40       1.0  0.12118315126217198  0.5889544340742818  0.32340652523474245  1.0000
  C   C41       1.0  0.8554149101436384  0.14411541755382884  0.21608763241930146  1.0000
  C   C42       1.0  0.3554149107835925  0.14411541755382884  0.2839123676210158  1.0000
  C   C43       1.0  0.6445850893663639  0.6441154172922411  0.21608763241930146  1.0000
  C   C44       1.0  0.8554149101436384  0.3558845821845834  0.7160876324596187  1.0000
  C   C45       1.0  0.14458509000631808  0.8558845825326046  0.7839123672596524  1.0000
  C   C46       1.0  0.6445850893663639  0.8558845825326046  0.7160876324596187  1.0000
  C   C47       1.0  0.3554149107835925  0.3558845821845834  0.7839123672596524  1.0000
  C   C48       1.0  0.14458509000631808  0.6441154172922411  0.2839123676210158  1.0000
  C   C49       1.0  0.5407285091239467  0.3605239038434491  0.09181736773465854  1.0000
  C   C50       1.0  0.0407285097639008  0.3605239038434491  0.40818263230565865  1.0000
  C   C51       1.0  0.9592714903860556  0.8605239041914704  0.09181736773465854  1.0000
  C   C52       1.0  0.5407285091239467  0.1394760958949631  0.5918173677749757  1.0000
  C   C53       1.0  0.4592714910260097  0.6394760962429843  0.908182632345976  1.0000
  C   C54       1.0  0.9592714903860556  0.6394760962429843  0.5918173677749757  1.0000
  C   C55       1.0  0.0407285097639008  0.1394760958949631  0.908182632345976  1.0000
  C   C56       1.0  0.4592714910260097  0.8605239041914704  0.40818263230565865  1.0000
  C   C57       1.0  0.4524280257385195  0.24449603599653694  0.13322848194040604  1.0000
  C   C58       1.0  0.9524280250985653  0.24449603599653694  0.3667715180999112  1.0000
  C   C59       1.0  0.047571975051391074  0.7444960357349493  0.13322848194040604  1.0000
  C   C60       1.0  0.4524280257385195  0.25550396435148426  0.6332284819807232  1.0000
  C   C61       1.0  0.5475719744114369  0.7555039640898965  0.8667715181402283  1.0000
  C   C62       1.0  0.047571975051391074  0.7555039640898965  0.6332284819807232  1.0000
  C   C63       1.0  0.9524280250985653  0.25550396435148426  0.8667715181402283  1.0000
  C   C64       1.0  0.5475719744114369  0.7444960357349493  0.3667715180999112  1.0000
  C   C65       1.0  0.402325682094876  0.3656659846379031  0.17355999431694472  1.0000
  C   C66       1.0  0.9023256814549219  0.3656659846379031  0.3264400057233725  1.0000
  C   C67       1.0  0.0976743186950345  0.8656659843763154  0.17355999431694472  1.0000
  C   C68       1.0  0.402325682094876  0.1343340157101181  0.673559994357262  1.0000
  C   C69       1.0  0.5976743180550803  0.6343340154485304  0.8264400057636898  1.0000
  C   C70       1.0  0.0976743186950345  0.6343340154485304  0.673559994357262  1.0000
  C   C71       1.0  0.9023256814549219  0.1343340157101181  0.8264400057636898  1.0000
  C   C72       1.0  0.5976743180550803  0.8656659843763154  0.3264400057233725  1.0000
  C   C73       1.0  0.6209073454559082  0.4021149027260091  0.04614347132566144  1.0000
  C   C74       1.0  0.1209073446659976  0.4021149027260091  0.45385652871465576  1.0000
  C   C75       1.0  0.8790926554839589  0.9021149024644213  0.04614347132566144  1.0000
  C   C76       1.0  0.6209073454559082  0.09788509762201213  0.5461434713659786  1.0000
  C   C77       1.0  0.3790926546940483  0.5978850973604244  0.9538565287549731  1.0000
  C   C78       1.0  0.8790926554839589  0.5978850973604244  0.5461434713659786  1.0000
  C   C79       1.0  0.1209073446659976  0.09788509762201213  0.9538565287549731  1.0000
  C   C80       1.0  0.3790926546940483  0.9021149024644213  0.45385652871465576  1.0000
  C   C81       1.0  0.4375146945167187  0.15718482271526207  0.1339343582491054  1.0000
  C   C82       1.0  0.9375146953066292  0.15718482271526207  0.3660656417912118  1.0000
  C   C83       1.0  0.06248530484332715  0.6571848224536743  0.1339343582491054  1.0000
  C   C84       1.0  0.4375146945167187  0.3428151770231502  0.6339343578877421  1.0000
  C   C85       1.0  0.5624853056332377  0.8428151773711714  0.8660656418315291  1.0000
  C   C86       1.0  0.06248530484332715  0.8428151773711714  0.6339343578877421  1.0000
  C   C87       1.0  0.9375146953066292  0.3428151770231502  0.8660656418315291  1.0000
  C   C88       1.0  0.5624853056332377  0.6571848224536743  0.3660656417912118  1.0000
  C   C89       1.0  0.33586050336830464  0.41091576990233547  0.21874417394363782  1.0000
  C   C90       1.0  0.8358605041582151  0.41091576990233547  0.2812558260966794  1.0000
  C   C91       1.0  0.16413949599174124  0.9109157702503567  0.21874417394363782  1.0000
  C   C92       1.0  0.33586050336830464  0.08908422983607682  0.7187441739839551  1.0000
  C   C93       1.0  0.6641394967816517  0.5890842301840981  0.7812558261369966  1.0000
  C   C94       1.0  0.16413949599174124  0.5890842301840981  0.7187441739839551  1.0000
  C   C95       1.0  0.8358605041582151  0.08908422983607682  0.7812558261369966  1.0000
  C   C96       1.0  0.6641394967816517  0.9109157702503567  0.2812558260966794  1.0000
  N   N1        1.0  0.5287561407135442  0.27797186073193275  0.08818147137508694  1.0000
  N   N2        1.0  0.028756141353498296  0.27797186073193275  0.4118185286652303  1.0000
  N   N3        1.0  0.9712438587964581  0.777971860470345  0.08818147137508694  1.0000
  N   N4        1.0  0.5287561407135442  0.22202813961608847  0.5881814714154041  1.0000
  N   N5        1.0  0.4712438594364122  0.7220281393545007  0.9118185287055475  1.0000
  N   N6        1.0  0.9712438587964581  0.7220281393545007  0.5881814714154041  1.0000
  N   N7        1.0  0.028756141353498296  0.22202813961608847  0.9118185287055475  1.0000
  N   N8        1.0  0.4712438594364122  0.777971860470345  0.4118185286652303  1.0000
  N   N9        1.0  0.3877699128414797  0.2832984969797802  0.1765870491230477  1.0000
  N   N10       1.0  0.8877699122015256  0.2832984969797802  0.3234129509172695  1.0000
  N   N11       1.0  0.11223008794843078  0.7832984967181925  0.1765870491230477  1.0000
  N   N12       1.0  0.3877699128414797  0.21670150336824098  0.676587049163365  1.0000
  N   N13       1.0  0.6122300873084766  0.7167015031066533  0.8234129509575867  1.0000
  N   N14       1.0  0.11223008794843078  0.7167015031066533  0.676587049163365  1.0000
  N   N15       1.0  0.8877699122015256  0.21670150336824098  0.8234129509575867  1.0000
  N   N16       1.0  0.6122300873084766  0.7832984967181925  0.3234129509172695  1.0000
  N   N17       1.0  0.4859244530157602  0.4073664656310805  0.13250979443469985  1.0000
  N   N18       1.0  0.9859244523758061  0.4073664656310805  0.36749020560561735  1.0000
  N   N19       1.0  0.014075547774150281  0.9073664659791018  0.13250979443469985  1.0000
  N   N20       1.0  0.4859244530157602  0.09263353410733179  0.6325097944750171  1.0000
  N   N21       1.0  0.5140755471341961  0.592633534455353  0.8674902056459346  1.0000
  N   N22       1.0  0.014075547774150281  0.592633534455353  0.6325097944750171  1.0000
  N   N23       1.0  0.9859244523758061  0.09263353410733179  0.8674902056459346  1.0000
  N   N24       1.0  0.5140755471341961  0.9073664659791018  0.36749020560561735  1.0000
  N   N25       1.0  0.684165417800346  0.43566433408503585  0.008893790921332896  1.0000
  N   N26       1.0  0.18416541844030015  0.43566433408503585  0.4911062091189843  1.0000
  N   N27       1.0  0.8158345817096563  0.935664333823448  0.008893790921332896  1.0000
  N   N28       1.0  0.684165417800346  0.06433566626298536  0.5088937909616501  1.0000
  N   N29       1.0  0.31583458091974576  0.5643356660013976  0.9911062091593015  1.0000
  N   N30       1.0  0.8158345817096563  0.5643356660013976  0.5088937909616501  1.0000
  N   N31       1.0  0.18416541844030015  0.06433566626298536  0.9911062091593015  1.0000
  N   N32       1.0  0.31583458091974576  0.935664333823448  0.4911062091189843  1.0000
  N   N33       1.0  0.4202586830288289  0.08647820702898212  0.13411174155103683  1.0000
  N   N34       1.0  0.9202586823888748  0.08647820702898212  0.36588825848928036  1.0000
  N   N35       1.0  0.07974131633121696  0.5864782067673944  0.13411174155103683  1.0000
  N   N36       1.0  0.4202586830288289  0.4135217933190391  0.6341117415913541  1.0000
  N   N37       1.0  0.5797413171211275  0.9135217930574513  0.8658882585295976  1.0000
  N   N38       1.0  0.07974131633121696  0.9135217930574513  0.6341117415913541  1.0000
  N   N39       1.0  0.9202586823888748  0.4135217933190391  0.8658882585295976  1.0000
  N   N40       1.0  0.5797413171211275  0.5864782067673944  0.36588825848928036  1.0000
  N   N41       1.0  0.2829009855530536  0.44577831845735677  0.2568137757765684  1.0000
  N   N42       1.0  0.7829009849130995  0.44577831845735677  0.2431862242637488  1.0000
  N   N43       1.0  0.21709901523685693  0.945778318195769  0.2568137757765684  1.0000
  N   N44       1.0  0.2829009855530536  0.05422168128105551  0.7568137758168856  1.0000
  N   N45       1.0  0.7170990145969028  0.5542216816290767  0.743186224304066  1.0000
  N   N46       1.0  0.21709901523685693  0.5542216816290767  0.7568137758168856  1.0000
  N   N47       1.0  0.7829009849130995  0.05422168128105551  0.743186224304066  1.0000
  N   N48       1.0  0.7170990145969028  0.945778318195769  0.2431862242637488  1.0000
  S   S1        1.0  0.020519810574319668  0.3905864384287444  0.11994653871666425  1.0000
  S   S2        1.0  0.5205198099343655  0.3905864384287444  0.38005346092197256  1.0000
  S   S3        1.0  0.47948019021559085  0.8905864381671567  0.11994653871666425  1.0000
  S   S4        1.0  0.020519810574319668  0.10941356191927677  0.6199465387569815  1.0000
  S   S5        1.0  0.9794801895756368  0.609413561657689  0.8800534609622896  1.0000
  S   S6        1.0  0.47948019021559085  0.609413561657689  0.6199465387569815  1.0000
  S   S7        1.0  0.5205198099343655  0.10941356191927677  0.8800534609622896  1.0000
  S   S8        1.0  0.9794801895756368  0.8905864381671567  0.38005346092197256  1.0000
  S   S9        1.0  0.08807326216087089  0.2720896457806136  0.033390571812616086  1.0000
  S   S10       1.0  0.5880732629507814  0.2720896457806136  0.46660942822770113  1.0000
  S   S11       1.0  0.41192673719917494  0.7720896455190259  0.033390571812616086  1.0000
  S   S12       1.0  0.08807326216087089  0.22791035456740757  0.5333905718529333  1.0000
  S   S13       1.0  0.9119267379890855  0.7279103543058199  0.9666094282680183  1.0000
  S   S14       1.0  0.41192673719917494  0.7279103543058199  0.5333905718529333  1.0000
  S   S15       1.0  0.5880732629507814  0.22791035456740757  0.9666094282680183  1.0000
  S   S16       1.0  0.9119267379890855  0.7720896455190259  0.46660942822770113  1.0000
  S   S17       1.0  0.9503584489844246  0.12444452836990526  0.1145428976087078  1.0000
  S   S18       1.0  0.4503584496243787  0.12444452836990526  0.3854571024316094  1.0000
  S   S19       1.0  0.5496415505255777  0.6244445281083175  0.1145428976087078  1.0000
  S   S20       1.0  0.9503584489844246  0.37555547197811595  0.614542897649025  1.0000
  S   S21       1.0  0.04964155116553186  0.8755554717165283  0.8854571024719267  1.0000
  S   S22       1.0  0.5496415505255777  0.8755554717165283  0.614542897649025  1.0000
  S   S23       1.0  0.4503584496243787  0.37555547197811595  0.8854571024719267  1.0000
  S   S24       1.0  0.04964155116553186  0.6244445281083175  0.3854571024316094  1.0000
  S   S25       1.0  0.8986644672120085  0.24522824096972784  0.20033737996105078  1.0000
  S   S26       1.0  0.39866446785196263  0.24522824096972784  0.2996626200792664  1.0000
  S   S27       1.0  0.6013355322979937  0.74522824070814  0.20033737996105078  1.0000
  S   S28       1.0  0.8986644672120085  0.2547717587686844  0.700337380001368  1.0000
  S   S29       1.0  0.10133553293794789  0.7547717591167057  0.7996626197179031  1.0000
  S   S30       1.0  0.6013355322979937  0.7547717591167057  0.700337380001368  1.0000
  S   S31       1.0  0.39866446785196263  0.2547717587686844  0.7996626197179031  1.0000
  S   S32       1.0  0.10133553293794789  0.74522824070814  0.2996626200792664  1.0000
