data_image0
_chemical_formula_structural       H100C32N8O8F16I4
_chemical_formula_sum              "H100 C32 N8 O8 F16 I4"
_cell_length_a       14.596855699202294
_cell_length_b       8.475580869251358
_cell_length_c       13.837708956546374
_cell_angle_alpha    90.0
_cell_angle_beta     120.70933367130213
_cell_angle_gamma    90.0

_space_group_name_H-M_alt    "P 1"
_space_group_IT_number       1

loop_
  _space_group_symop_operation_xyz
  'x, y, z'

loop_
  _atom_site_type_symbol
  _atom_site_label
  _atom_site_symmetry_multiplicity
  _atom_site_fract_x
  _atom_site_fract_y
  _atom_site_fract_z
  _atom_site_occupancy
  H   H1        1.0  0.03887502354151135  0.4999999994542346  0.185153677551132  1.0000
  H   H2        1.0  0.5388750237553961  0.0  0.1851536778379682  1.0000
  H   H3        1.0  0.9611249763821145  0.4999999994542346  0.8148463221817335  1.0000
  H   H4        1.0  0.4611249765727604  0.0  0.8148463227354237  1.0000
  H   H5        1.0  0.15476345924371  0.39316554952467114  0.20662834391430226  1.0000
  H   H6        1.0  0.6547634594575947  0.8931655489789057  0.20662834420113846  1.0000
  H   H7        1.0  0.8452365406799159  0.39316554952467114  0.7933716558185633  1.0000
  H   H8        1.0  0.3452365404660312  0.8931655489789057  0.7933716555317272  1.0000
  H   H9        1.0  0.8452365406799159  0.6068344505636581  0.7933716558185633  1.0000
  H   H10       1.0  0.3452365404660312  0.10683445110942358  0.7933716555317272  1.0000
  H   H11       1.0  0.15476345924371  0.6068344505636581  0.20662834391430226  1.0000
  H   H12       1.0  0.6547634594575947  0.10683445110942358  0.20662834420113846  1.0000
  H   H13       1.0  0.16226017503409407  0.3587996276494277  0.47382034644084847  1.0000
  H   H14       1.0  0.6622601752479789  0.8587996282835224  0.47382034672768464  1.0000
  H   H15       1.0  0.8377398248895317  0.3587996276494277  0.526179653292017  1.0000
  H   H16       1.0  0.3377398250801777  0.8587996282835224  0.5261796538457072  1.0000
  H   H17       1.0  0.8377398248895317  0.6412003724389016  0.526179653292017  1.0000
  H   H18       1.0  0.3377398250801777  0.14120037180480688  0.5261796538457072  1.0000
  H   H19       1.0  0.16226017503409407  0.6412003724389016  0.47382034644084847  1.0000
  H   H20       1.0  0.6622601752479789  0.14120037180480688  0.47382034672768464  1.0000
  H   H21       1.0  0.04313326603588751  0.35962760865842963  0.3390996903748822  1.0000
  H   H22       1.0  0.5431332662497723  0.8596276081126641  0.33909969066171847  1.0000
  H   H23       1.0  0.9568667338877382  0.35962760865842963  0.6609003093579833  1.0000
  H   H24       1.0  0.45686673407838424  0.8596276081126641  0.6609003099116735  1.0000
  H   H25       1.0  0.9568667338877382  0.6403723914298997  0.6609003093579833  1.0000
  H   H26       1.0  0.45686673407838424  0.1403723919756651  0.6609003099116735  1.0000
  H   H27       1.0  0.04313326603588751  0.6403723914298997  0.3390996903748822  1.0000
  H   H28       1.0  0.5431332662497723  0.1403723919756651  0.33909969066171847  1.0000
  H   H29       1.0  0.3158032833233612  0.39359820187694866  0.39074601087749045  1.0000
  H   H30       1.0  0.8158032835372458  0.8935982025110434  0.3907460111643266  1.0000
  H   H31       1.0  0.6841967166002647  0.39359820187694866  0.6092539888553751  1.0000
  H   H32       1.0  0.18419671679091054  0.8935982025110434  0.6092539894090652  1.0000
  H   H33       1.0  0.6841967166002647  0.6064017982113806  0.6092539888553751  1.0000
  H   H34       1.0  0.18419671679091054  0.1064017975772859  0.6092539894090652  1.0000
  H   H35       1.0  0.3158032833233612  0.6064017982113806  0.39074601087749045  1.0000
  H   H36       1.0  0.8158032835372458  0.1064017975772859  0.3907460111643266  1.0000
  H   H37       1.0  0.31602814850808275  0.4999999994542346  0.5030671635970991  1.0000
  H   H38       1.0  0.8160281487219675  0.0  0.5030671638839354  1.0000
  H   H39       1.0  0.6839718507290498  0.4999999994542346  0.4969328361328364  1.0000
  H   H40       1.0  0.18397185160618898  0.0  0.4969328366894565  1.0000
  H   H41       1.0  0.15817783780291622  0.25147937502816464  0.3592882914320194  1.0000
  H   H42       1.0  0.658177838016801  0.7514793756622594  0.35928829171885557  1.0000
  H   H43       1.0  0.8418221621207096  0.25147937502816464  0.640711708300846  1.0000
  H   H44       1.0  0.3418221623113555  0.7514793756622594  0.6407117088545362  1.0000
  H   H45       1.0  0.8418221621207096  0.7485206250601646  0.640711708300846  1.0000
  H   H46       1.0  0.3418221623113555  0.24852062442606992  0.6407117088545362  1.0000
  H   H47       1.0  0.15817783780291622  0.7485206250601646  0.3592882914320194  1.0000
  H   H48       1.0  0.658177838016801  0.24852062442606992  0.35928829171885557  1.0000
  H   H49       1.0  9.117488364825502e-11  0.7155269843511827  0.4999999995810615  1.0000
  H   H50       1.0  0.4999999996185662  0.21552698371708798  0.49999999986496774  1.0000
  H   H51       1.0  9.117488364825502e-11  0.28447301573714656  0.4999999995810615  1.0000
  H   H52       1.0  0.4999999996185662  0.7844730163712413  0.49999999986496774  1.0000
  H   H53       1.0  0.5887835571571681  0.7484146276053756  0.8687129350234296  1.0000
  H   H54       1.0  0.08878355694328331  0.24841462815114096  0.8687129347365933  1.0000
  H   H55       1.0  0.41121644317098843  0.7484146276053756  0.13128706554996233  1.0000
  H   H56       1.0  0.9112164429803424  0.24841462815114096  0.13128706499627218  1.0000
  H   H57       1.0  0.41121644317098843  0.2515853724829538  0.13128706554996233  1.0000
  H   H58       1.0  0.9112164429803424  0.7515853719371883  0.13128706499627218  1.0000
  H   H59       1.0  0.5887835571571681  0.2515853724829538  0.8687129350234296  1.0000
  H   H60       1.0  0.08878355694328331  0.7515853719371883  0.8687129347365933  1.0000
  H   H61       1.0  0.7406228898073818  0.606640741126473  0.8864696971389181  1.0000
  H   H62       1.0  0.24062288959349717  0.10664074049237829  0.8864696968520821  1.0000
  H   H63       1.0  0.25937711011624404  0.606640741126473  0.11353030259394732  1.0000
  H   H64       1.0  0.7593771103301289  0.10664074049237829  0.1135303028807835  1.0000
  H   H65       1.0  0.25937711011624404  0.3933592589618563  0.11353030259394732  1.0000
  H   H66       1.0  0.7593771103301289  0.8933592595959511  0.1135303028807835  1.0000
  H   H67       1.0  0.7406228898073818  0.3933592589618563  0.8864696971389181  1.0000
  H   H68       1.0  0.24062288959349717  0.8933592595959511  0.8864696968520821  1.0000
  H   H69       1.0  0.573205342687393  0.6060253296189357  0.7094511088516902  1.0000
  H   H70       1.0  0.07320534247350828  0.106025328984841  0.7094511085648539  1.0000
  H   H71       1.0  0.4267946572362329  0.6060253296189357  0.29054889088117547  1.0000
  H   H72       1.0  0.9267946574501177  0.106025328984841  0.2905488911680117  1.0000
  H   H73       1.0  0.4267946572362329  0.39397467046939355  0.29054889088117547  1.0000
  H   H74       1.0  0.9267946574501177  0.8939746711034883  0.2905488911680117  1.0000
  H   H75       1.0  0.573205342687393  0.39397467046939355  0.7094511088516902  1.0000
  H   H76       1.0  0.07320534247350828  0.8939746711034883  0.7094511085648539  1.0000
  H   H77       1.0  0.7536482940560497  0.4999999994542346  0.005401779703112993  1.0000
  H   H78       1.0  0.253648293842165  0.0  0.005401779416276799  1.0000
  H   H79       1.0  0.24635170627210679  0.4999999994542346  0.9945982208702789  1.0000
  H   H80       1.0  0.7463517060814608  0.0  0.9945982203165887  1.0000
  H   H81       1.0  0.46177095390634654  0.4999999994542346  0.6989028262567807  1.0000
  H   H82       1.0  0.9617709541202313  0.0  0.6989028265436169  1.0000
  H   H83       1.0  0.5382290460172794  0.4999999994542346  0.30109717347608483  1.0000
  H   H84       1.0  0.0382290458033946  0.0  0.3010971731892486  1.0000
  H   H85       1.0  0.6048742850349023  0.6428410458292586  0.9891904063657881  1.0000
  H   H86       1.0  0.10487428482101743  0.1428410451951639  0.9891904060789519  1.0000
  H   H87       1.0  0.39512571488872367  0.6428410458292586  0.010809593367077373  1.0000
  H   H88       1.0  0.8951257151026085  0.1428410451951639  0.010809593653913568  1.0000
  H   H89       1.0  0.39512571488872367  0.3571589542590706  0.010809593367077373  1.0000
  H   H90       1.0  0.8951257151026085  0.8571589548931653  0.010809593653913568  1.0000
  H   H91       1.0  0.6048742850349023  0.3571589542590706  0.9891904063657881  1.0000
  H   H92       1.0  0.10487428482101743  0.8571589548931653  0.9891904060789519  1.0000
  H   H93       1.0  0.47812935266823126  0.6404004945184872  0.8593766558915915  1.0000
  H   H94       1.0  0.9781293524775854  0.14040049506425273  0.8593766553379013  1.0000
  H   H95       1.0  0.5218706476599252  0.6404004945184872  0.1406233446818003  1.0000
  H   H96       1.0  0.02187064744604052  0.14040049506425273  0.14062334439496413  1.0000
  H   H97       1.0  0.5218706476599252  0.359599505569842  0.1406233446818003  1.0000
  H   H98       1.0  0.02187064744604052  0.8595995050240766  0.14062334439496413  1.0000
  H   H99       1.0  0.47812935266823126  0.359599505569842  0.8593766558915915  1.0000
  H   H100      1.0  0.9781293524775854  0.8595995050240766  0.8593766553379013  1.0000
  C   C1        1.0  0.12596122820608285  0.4999999994542346  0.22743979598402495  1.0000
  C   C2        1.0  0.6259612284199676  0.0  0.22743979627086114  1.0000
  C   C3        1.0  0.8740387710310498  0.4999999994542346  0.7725602037459107  1.0000
  C   C4        1.0  0.3740387715036583  0.0  0.7725602034620043  1.0000
  C   C5        1.0  0.1301632413905672  0.3561507083191372  0.3830335890918286  1.0000
  C   C6        1.0  0.6301632416044519  0.856150708953232  0.38303358937866483  1.0000
  C   C7        1.0  0.8698367578465653  0.3561507083191372  0.6169664106381069  1.0000
  C   C8        1.0  0.36983675831917384  0.856150708953232  0.6169664103542006  1.0000
  C   C9        1.0  0.8698367578465653  0.643849291769192  0.6169664106381069  1.0000
  C   C10       1.0  0.36983675831917384  0.14384929113509734  0.6169664103542006  1.0000
  C   C11       1.0  0.1301632413905672  0.643849291769192  0.3830335890918286  1.0000
  C   C12       1.0  0.6301632416044519  0.14384929113509734  0.38303358937866483  1.0000
  C   C13       1.0  0.28796617834327304  0.4999999994542346  0.41306497560874667  1.0000
  C   C14       1.0  0.7879661785571578  0.0  0.41306497589558283  1.0000
  C   C15       1.0  0.7120338215803529  0.4999999994542346  0.5869350241241189  1.0000
  C   C16       1.0  0.21203382136646812  0.0  0.5869350238372827  1.0000
  C   C17       1.0  0.7176833381897485  0.4999999994542346  0.9139559680030982  1.0000
  C   C18       1.0  0.21768333797586378  0.0  0.9139559677162622  1.0000
  C   C19       1.0  0.282316662138408  0.4999999994542346  0.08604403257029354  1.0000
  C   C20       1.0  0.7823166619477621  0.0  0.08604403201660336  1.0000
  C   C21       1.0  0.5648717864466651  0.6439991387259484  0.8971457774286953  1.0000
  C   C22       1.0  0.06487178623278048  0.14399913809185375  0.8971457771418591  1.0000
  C   C23       1.0  0.4351282134769607  0.6439991387259484  0.10285422230417021  1.0000
  C   C24       1.0  0.9351282130043521  0.14399913809185375  0.10285422258807651  1.0000
  C   C25       1.0  0.4351282134769607  0.35600086136238085  0.10285422230417021  1.0000
  C   C26       1.0  0.9351282130043521  0.8560008608166154  0.10285422258807651  1.0000
  C   C27       1.0  0.5648717864466651  0.35600086136238085  0.8971457774286953  1.0000
  C   C28       1.0  0.06487178623278048  0.8560008608166154  0.8971457771418591  1.0000
  C   C29       1.0  0.5482608545002694  0.4999999994542346  0.7352783800385347  1.0000
  C   C30       1.0  0.04826085428638461  0.0  0.7352783797516985  1.0000
  C   C31       1.0  0.45173914582788716  0.4999999994542346  0.26472162053485715  1.0000
  C   C32       1.0  0.9517391456372412  0.0  0.264721619981167  1.0000
  N   N1        1.0  0.1686335991926234  0.4999999994542346  0.3515278230060408  1.0000
  N   N2        1.0  0.6686335990019775  0.0  0.3515278224523506  1.0000
  N   N3        1.0  0.8313664011355332  0.4999999994542346  0.6484721775673512  1.0000
  N   N4        1.0  0.3313664009216484  0.0  0.648472177280515  1.0000
  N   N5        1.0  0.5988363940594432  0.4999999994542346  0.8606218560326666  1.0000
  N   N6        1.0  0.09883639384555849  0.0  0.8606218557458304  1.0000
  N   N7        1.0  0.4011636062687133  0.4999999994542346  0.13937814454072528  1.0000
  N   N8        1.0  0.9011636060780673  0.0  0.13937814398703507  1.0000
  O   O1        1.0  0.2871863296869419  0.3352158411121333  0.8248646330060461  1.0000
  O   O2        1.0  0.787186329496296  0.8352158405663679  0.8248646324523559  1.0000
  O   O3        1.0  0.7128136706412146  0.3352158411121333  0.17513536756734582  1.0000
  O   O4        1.0  0.21281367042732985  0.8352158405663679  0.17513536728050963  1.0000
  O   O5        1.0  0.7128136706412146  0.664784158976196  0.17513536756734582  1.0000
  O   O6        1.0  0.21281367042732985  0.16478415834210125  0.17513536728050963  1.0000
  O   O7        1.0  0.2871863296869419  0.664784158976196  0.8248646330060461  1.0000
  O   O8        1.0  0.787186329496296  0.16478415834210125  0.8248646324523559  1.0000
  F   F1        1.0  0.11413385399998112  0.4999999994542346  0.810559691863884  1.0000
  F   F2        1.0  0.614133853122842  0.0  0.8105596913072639  1.0000
  F   F3        1.0  0.8858661463281753  0.4999999994542346  0.1894403087095079  1.0000
  F   F4        1.0  0.38586614611429065  0.0  0.1894403084226717  1.0000
  F   F5        1.0  0.2917723267525057  0.4999999994542346  0.6523432907964102  1.0000
  F   F6        1.0  0.7917723269663903  0.0  0.6523432910832463  1.0000
  F   F7        1.0  0.7082276731711203  0.4999999994542346  0.3476567089364554  1.0000
  F   F8        1.0  0.20822767336176615  0.0  0.3476567094901456  1.0000
  F   F9        1.0  0.07274568696271666  0.717320965228076  0.589800635424774  1.0000
  F   F10       1.0  0.5727456871766013  0.21732096459398137  0.5898006357116102  1.0000
  F   F11       1.0  0.9272543129609091  0.717320965228076  0.4101993643080914  1.0000
  F   F12       1.0  0.4272543127470244  0.21732096459398137  0.4101993640212552  1.0000
  F   F13       1.0  0.9272543129609091  0.28267903486025325  0.4101993643080914  1.0000
  F   F14       1.0  0.4272543127470244  0.7826790354943479  0.4101993640212552  1.0000
  F   F15       1.0  0.07274568696271666  0.28267903486025325  0.589800635424774  1.0000
  F   F16       1.0  0.5727456871766013  0.7826790354943479  0.5898006357116102  1.0000
  I   I1        1.0  0.21027542793416384  0.4999999994542346  0.7396449320658863  1.0000
  I   I2        1.0  0.7102754281480486  0.0  0.7396449323527224  1.0000
  I   I3        1.0  0.7897245719894621  0.4999999994542346  0.2603550676669792  1.0000
  I   I4        1.0  0.2897245721801079  0.0  0.26035506822066934  1.0000
