data_image0
_chemical_formula_structural       H58B6C48N4O6
_chemical_formula_sum              "H58 B6 C48 N4 O6"
_cell_length_a       9.267319445433689
_cell_length_b       10.561693817273529
_cell_length_c       13.346409857147117
_cell_angle_alpha    107.56434809133711
_cell_angle_beta     101.04461896883745
_cell_angle_gamma    103.60404881683912

_space_group_name_H-M_alt    "P 1"
_space_group_IT_number       1

loop_
  _space_group_symop_operation_xyz
  'x, y, z'

loop_
  _atom_site_type_symbol
  _atom_site_label
  _atom_site_symmetry_multiplicity
  _atom_site_fract_x
  _atom_site_fract_y
  _atom_site_fract_z
  _atom_site_occupancy
  H   H1        1.0  0.9735277885820235  0.6866613361937818  0.33097893765668635  1.0000
  H   H2        1.0  0.02647221104910986  0.3133386638330119  0.6690210624504567  1.0000
  H   H3        1.0  0.039449626567916445  0.7869113429059819  0.46380683368781994  1.0000
  H   H4        1.0  0.960550373063217  0.21308865712081174  0.5361931664193231  1.0000
  H   H5        1.0  0.5607301954696736  0.5952568114227909  0.455896754932687  1.0000
  H   H6        1.0  0.4392698041614598  0.4047431886040028  0.5441032451744561  1.0000
  H   H7        1.0  0.33349173250128145  0.38696819103831487  0.3431624884326242  1.0000
  H   H8        1.0  0.666508267129852  0.6130318089884788  0.6568375116745189  1.0000
  H   H9        1.0  0.28034311798390926  0.2894915274155159  0.1408159075450193  1.0000
  H   H10       1.0  0.7196568816472241  0.7105084726112777  0.8591840925621238  1.0000
  H   H11       1.0  0.45677230108564437  0.40350864102466427  0.05119119615503875  1.0000
  H   H12       1.0  0.5432276985454889  0.5964913590021292  0.9488088039521042  1.0000
  H   H13       1.0  0.6846103945302605  0.6098834096356365  0.1647156907058588  1.0000
  H   H14       1.0  0.31538960618252754  0.390116590397198  0.8352843094048941  1.0000
  H   H15       1.0  0.7760484586910618  0.8655846716934277  0.7094935120870811  1.0000
  H   H16       1.0  0.22395154227946418  0.13441532931523673  0.29050648802733897  1.0000
  H   H17       1.0  0.7043690861994073  0.9629303258554971  0.8808562141014534  1.0000
  H   H18       1.0  0.2956309145133808  0.037069674177337406  0.11914378600929972  1.0000
  H   H19       1.0  0.5898371375036559  0.1566208610031757  0.9039361205019538  1.0000
  H   H20       1.0  0.41016286320913226  0.8433791390296589  0.09606387960879922  1.0000
  H   H21       1.0  0.5473454088828076  0.25359670247229393  0.7555951598620467  1.0000
  H   H22       1.0  0.4526545907483259  0.7464032975544997  0.24440484024509626  1.0000
  H   H23       1.0  0.6223920405355756  0.15791025431969294  0.5866011475273394  1.0000
  H   H24       1.0  0.3776079587734573  0.8420897453312829  0.41339885176033087  1.0000
  H   H25       1.0  0.6407308762533724  0.16320937387701293  0.3550512167814949  1.0000
  H   H26       1.0  0.35926912337776085  0.8367906261497806  0.6449487833256481  1.0000
  H   H27       1.0  0.6298289201231516  0.3006780779454611  0.2340965904815334  1.0000
  H   H28       1.0  0.3701710802675359  0.6993219217115556  0.7659034088097468  1.0000
  H   H29       1.0  0.7785595523738889  0.27796082652284665  0.09667657165873308  1.0000
  H   H30       1.0  0.22144044833889914  0.7220391735099878  0.9033234284520198  1.0000
  H   H31       1.0  0.9353077463373008  0.11414232070892531  0.07877465811114094  1.0000
  H   H32       1.0  0.06469225329383262  0.8858576793178683  0.921225341996002  1.0000
  H   H33       1.0  0.9415592281674053  0.973741157338095  0.19780409317097855  1.0000
  H   H34       1.0  0.05844077254538268  0.026258842694739506  0.8021959069397745  1.0000
  H   H35       1.0  0.8482612539179092  0.4906652395117908  0.36878532337672637  1.0000
  H   H36       1.0  0.15173874679487892  0.5093347605210438  0.6312146767340266  1.0000
  H   H37       1.0  0.7964217325953359  0.6082729653709402  0.5411675649685702  1.0000
  H   H38       1.0  0.2035782670357976  0.3917270346558534  0.45883243513857286  1.0000
  H   H39       1.0  0.9960122346626533  0.6803166099181377  0.609815865033952  1.0000
  H   H40       1.0  0.0039877649684800604  0.3196833901086558  0.39018413507319094  1.0000
  H   H41       1.0  0.19122561111726394  0.6325256306176004  0.4943920694094561  1.0000
  H   H42       1.0  0.8087743895955241  0.36747436941523415  0.5056079307012968  1.0000
  H   H43       1.0  0.11574275157696398  0.5325459823491643  0.35236742456820486  1.0000
  H   H44       1.0  0.8842572491358239  0.4674540176836702  0.6476325755425482  1.0000
  H   H45       1.0  0.9296693838483341  0.7524310830469763  0.2024212072793459  1.0000
  H   H46       1.0  0.0703306157827992  0.24756891697981726  0.7975787928277971  1.0000
  H   H47       1.0  0.11034387113151413  0.7530911523962447  0.22317896324289002  1.0000
  H   H48       1.0  0.8896561284996193  0.2469088476305489  0.7768210368642529  1.0000
  H   H49       1.0  0.8411917066435035  0.5086026373014408  0.0824768266290529  1.0000
  H   H50       1.0  0.15880829298762975  0.4913973627253527  0.9175231734780901  1.0000
  H   H51       1.0  0.05946964114877339  0.4470069006026303  0.17054700882253793  1.0000
  H   H52       1.0  0.9405303595640148  0.5529930994302042  0.8294529912882151  1.0000
  H   H53       1.0  0.1895605839060299  0.5571638342763435  0.12857554217028153  1.0000
  H   H54       1.0  0.8104394157251036  0.44283616575045015  0.8714244579368616  1.0000
  H   H55       1.0  0.08179372201336907  0.7045514691639035  0.024413100511686964  1.0000
  H   H56       1.0  0.9182062776177644  0.29544853086289014  0.9755868995954561  1.0000
  H   H57       1.0  0.8830630619126745  0.6891028058153335  0.999441304276128  1.0000
  H   H58       1.0  0.11693693771845895  0.31089719421146017  0.0005586958310152045  1.0000
  B   B1        1.0  0.7936596223540091  0.7508987021194333  0.3922176585188445  1.0000
  B   B2        1.0  0.20634037727712431  0.24910129790736038  0.6077823415882986  1.0000
  B   B3        1.0  0.7507188673732941  0.9457010891106795  0.5287064609914478  1.0000
  B   B4        1.0  0.2492811322578393  0.05429891091611409  0.47129353911569527  1.0000
  B   B5        1.0  0.7926221167432839  0.9711645843261388  0.3613801295244612  1.0000
  B   B6        1.0  0.2073778828878495  0.028835415700654777  0.6386198705826819  1.0000
  C   C1        1.0  0.643433733939729  0.6160876650446157  0.3194181390315947  1.0000
  C   C2        1.0  0.35656626569140437  0.38391233498217786  0.6805818610755483  1.0000
  C   C3        1.0  0.5401110237960653  0.5519160853058135  0.36722053527429  1.0000
  C   C4        1.0  0.45988897691672265  0.448083914727021  0.632779464836463  1.0000
  C   C5        1.0  0.4109485202758181  0.43550455618298684  0.3038260787150097  1.0000
  C   C6        1.0  0.5890514793553154  0.5644954438438068  0.6961739213921334  1.0000
  C   C7        1.0  0.38077104575846116  0.38081955968050196  0.19008935562528054  1.0000
  C   C8        1.0  0.6192289538726722  0.6191804403462917  0.8099106444818626  1.0000
  C   C9        1.0  0.47981068494006884  0.4444628276247485  0.14014377188958915  1.0000
  C   C10       1.0  0.5201893146910646  0.5555371724020451  0.8598562282175539  1.0000
  C   C11       1.0  0.6090973416188614  0.5601034823433687  0.20457279872668593  1.0000
  C   C12       1.0  0.39090265769017146  0.439896517307607  0.7954272005609843  1.0000
  C   C13       1.0  0.705510755689278  0.005567708298112908  0.6363388024202773  1.0000
  C   C14       1.0  0.29448924361975487  0.9944322913528628  0.3636611968673929  1.0000
  C   C15       1.0  0.7270160561552139  0.9514365590948161  0.7204033990892342  1.0000
  C   C16       1.0  0.2729839434759195  0.0485634409319776  0.2795966010179089  1.0000
  C   C17       1.0  0.6875419193652921  0.0062434477432296385  0.8165364983168577  1.0000
  C   C18       1.0  0.312458081347496  0.9937565522896049  0.1834635017938953  1.0000
  C   C19       1.0  0.6232177850444572  0.11537127189267708  0.8296384652642471  1.0000
  C   C20       1.0  0.3767822156683308  0.8846287281401574  0.17036153484650596  1.0000
  C   C21       1.0  0.5987961728677572  0.16943659180171394  0.7465381252901185  1.0000
  C   C22       1.0  0.4012038267633762  0.8305634082250798  0.2534618748170245  1.0000
  C   C23       1.0  0.6402738802607553  0.11504656332388032  0.6511441819556312  1.0000
  C   C24       1.0  0.35972611937037813  0.8849534367029132  0.3488558181515119  1.0000
  C   C25       1.0  0.7926779604668395  0.05927690772563752  0.28590969143625217  1.0000
  C   C26       1.0  0.20732203884219347  0.9407230919253382  0.714090307851418  1.0000
  C   C27       1.0  0.7062271804079501  0.1530376608440236  0.29488868044766026  1.0000
  C   C28       1.0  0.29377281922318316  0.8469623391827699  0.7051113196594827  1.0000
  C   C29       1.0  0.6996540949263201  0.2302757800825773  0.2267991825816229  1.0000
  C   C30       1.0  0.30034590546436735  0.7697242195744394  0.7732008167096572  1.0000
  C   C31       1.0  0.7824873689582181  0.21666605184542814  0.14919646760078104  1.0000
  C   C32       1.0  0.2175126306729152  0.7833339481813654  0.8508035325063619  1.0000
  C   C33       1.0  0.869996810137546  0.12451160380928215  0.13908587043706538  1.0000
  C   C34       1.0  0.13000318917148704  0.8754883958416936  0.8609141288506048  1.0000
  C   C35       1.0  0.8733768735808372  0.04565488388770019  0.20615733008114107  1.0000
  C   C36       1.0  0.12662312605029624  0.9543451161390936  0.7938426700260021  1.0000
  C   C37       1.0  0.94303047768368  0.5764103516545089  0.43449113734841777  1.0000
  C   C38       1.0  0.05696952302910807  0.4235896483783256  0.5655088627623353  1.0000
  C   C39       1.0  0.9080271087595091  0.5892088506243379  0.5436274649211662  1.0000
  C   C40       1.0  0.09197289163117867  0.41079114903267877  0.45637253437011405  1.0000
  C   C41       1.0  0.09476641867792421  0.5437151505080544  0.4324676415429717  1.0000
  C   C42       1.0  0.9052335820348637  0.45628484952478005  0.5675323585677813  1.0000
  C   C43       1.0  0.9604407422081457  0.5763385526909208  0.09858115888906138  1.0000
  C   C44       1.0  0.03955925742298766  0.42366144733587274  0.9014188412180816  1.0000
  C   C45       1.0  0.06916690865059913  0.4886951020695102  0.10511486867190314  1.0000
  C   C46       1.0  0.9308330909805342  0.5113048979572833  0.8948851314352398  1.0000
  C   C47       1.0  0.9654857396532066  0.6296720959358459  0.004148945936721723  1.0000
  C   C48       1.0  0.03451426105958144  0.37032790409698857  0.9958510541740312  1.0000
  N   N1        1.0  0.9472567100182774  0.7040018765482157  0.40768270295289255  1.0000
  N   N2        1.0  0.05274328961285602  0.29599812347857796  0.5923172971542505  1.0000
  N   N3        1.0  0.9989670340256954  0.6900368706015  0.20466870370892715  1.0000
  N   N4        1.0  0.0010329656054380413  0.30996312942529364  0.795331296398216  1.0000
  O   O1        1.0  0.7786688509861249  0.8214372873452455  0.501324800654263  1.0000
  O   O2        1.0  0.22133114864500827  0.17856271268154802  0.49867519945287997  1.0000
  O   O3        1.0  0.759496422026283  0.024533974616241197  0.46096064909275825  1.0000
  O   O4        1.0  0.2405035786865051  0.9754660254165933  0.5390393510179947  1.0000
  O   O5        1.0  0.8227304200996272  0.847835237976106  0.33211881245292624  1.0000
  O   O6        1.0  0.17726957920940578  0.15216476167486961  0.6678811868347441  1.0000
