data_image0
_chemical_formula_structural       H48C32S8I16
_chemical_formula_sum              "H48 C32 S8 I16"
_cell_length_a       8.350335631734891
_cell_length_b       21.472525832244557
_cell_length_c       9.399773989666766
_cell_angle_alpha    90.0
_cell_angle_beta     116.45202436199158
_cell_angle_gamma    90.0

_space_group_name_H-M_alt    "P 1"
_space_group_IT_number       1

loop_
  _space_group_symop_operation_xyz
  'x, y, z'

loop_
  _atom_site_type_symbol
  _atom_site_label
  _atom_site_symmetry_multiplicity
  _atom_site_fract_x
  _atom_site_fract_y
  _atom_site_fract_z
  _atom_site_occupancy
  H   H1        1.0  0.2405511618149125  0.14413501672692974  0.051028739570209265  1.0000
  H   H2        1.0  0.7594488385013565  0.6441350164418083  0.4489712612391392  1.0000
  H   H3        1.0  0.7594488379521355  0.85586498363425  0.9489712609037133  1.0000
  H   H4        1.0  0.24055116246726863  0.3558649834536602  0.5510287392428563  1.0000
  H   H5        1.0  0.04986953653916072  0.19106545415533643  0.9323264219011356  1.0000
  H   H6        1.0  0.9501304632925649  0.6910654543359264  0.5676735770572048  1.0000
  H   H7        1.0  0.9501304638417859  0.808934545740132  0.06767357739263065  1.0000
  H   H8        1.0  0.049869535886804595  0.3089345455595421  0.4323264222284885  1.0000
  H   H9        1.0  0.7512578760694717  0.13056745777853065  0.6943618906377573  1.0000
  H   H10       1.0  0.24874212434993245  0.6305674579591206  0.8056381095088122  1.0000
  H   H11       1.0  0.2487421248991534  0.8694325421169379  0.3056381098442381  1.0000
  H   H12       1.0  0.7512578754171156  0.36943254193634784  0.1943618909651104  1.0000
  H   H13       1.0  0.762301341787526  0.04776287326477015  0.6759616756184883  1.0000
  H   H14       1.0  0.23769865863187825  0.5477628729796487  0.8240383245280813  1.0000
  H   H15       1.0  0.23769865918109906  0.9522371270964097  0.32403832486350714  1.0000
  H   H16       1.0  0.7623013411351699  0.45223712691581974  0.1759616759458413  1.0000
  H   H17       1.0  0.8644499737440423  0.1061250114589708  0.3987106082516957  1.0000
  H   H18       1.0  0.13555002657222662  0.6061250116395607  0.10128939255765285  1.0000
  H   H19       1.0  0.13555002602300573  0.8938749884364977  0.601289392222227  1.0000
  H   H20       1.0  0.8644499731948213  0.3938749882559077  0.8987106079162697  1.0000
  H   H21       1.0  0.7982622415047451  0.16726224935339012  0.48853954231740515  1.0000
  H   H22       1.0  0.20173775822384554  0.6672622495339801  0.011460457303713978  1.0000
  H   H23       1.0  0.20173775826230306  0.8327377505420783  0.5114604581565174  1.0000
  H   H24       1.0  0.798262242157101  0.3327377503614884  0.988539541990052  1.0000
  H   H25       1.0  0.12088543439511566  0.23649704835256305  0.7440223260588942  1.0000
  H   H26       1.0  0.8791145660242885  0.7364970485331529  0.7559776740876754  1.0000
  H   H27       1.0  0.8791145665735094  0.7635029515429053  0.25597767442310126  1.0000
  H   H28       1.0  0.1208854331550812  0.26350295136231544  0.24402232519801795  1.0000
  H   H29       1.0  0.3296127929307082  0.20576507787291592  0.7678080119778417  1.0000
  H   H30       1.0  0.6703872074886958  0.7057650780535059  0.7321919881687279  1.0000
  H   H31       1.0  0.6703872068363398  0.7942349220225525  0.23219198849608091  1.0000
  H   H32       1.0  0.3296127928922507  0.29423492230767395  0.2678080111250382  1.0000
  H   H33       1.0  0.33100653125988516  0.057398361032553295  0.9204369961664557  1.0000
  H   H34       1.0  0.668993469159519  0.5573983612131432  0.5795630039801138  1.0000
  H   H35       1.0  0.6689934691210614  0.9426016388629153  0.07956300312731038  1.0000
  H   H36       1.0  0.33100653180910605  0.4426016386823252  0.42043699650188165  1.0000
  H   H37       1.0  0.3725997770606223  0.08974844948637115  0.7653928663251262  1.0000
  H   H38       1.0  0.6274002233587818  0.589748449666961  0.7346071338214434  1.0000
  H   H39       1.0  0.6274002239080029  0.9102515504090972  0.2346071341568693  1.0000
  H   H40       1.0  0.37259977640826625  0.41025155069421876  0.2653928666524792  1.0000
  H   H41       1.0  0.11610242468182698  0.0336253753117281  0.5670394414479221  1.0000
  H   H42       1.0  0.8838975745360002  0.5336253750266066  0.9329605586905746  1.0000
  H   H43       1.0  0.8838975750852212  0.9663746245837403  0.43296055902600056  1.0000
  H   H44       1.0  0.11610242464336946  0.46637462486886183  0.0670394405951186  1.0000
  H   H45       1.0  0.0680763455267731  0.0014113141712696325  0.7188162358158345  1.0000
  H   H46       1.0  0.931923654892631  0.5014113143518595  0.781183764330735  1.0000
  H   H47       1.0  0.931923655441852  0.9985886857241988  0.28118376466616096  1.0000
  H   H48       1.0  0.06807634428673855  0.49858868600932027  0.2188162349549582  1.0000
  C   C1        1.0  0.14913109852327008  0.13601322838388738  0.7923568538397961  1.0000
  C   C2        1.0  0.8508689018961341  0.6360132285644773  0.7076431463067735  1.0000
  C   C3        1.0  0.8508689024453551  0.863986771511581  0.20764314664219935  1.0000
  C   C4        1.0  0.149131097870914  0.3639867713309911  0.2923568541671491  1.0000
  C   C5        1.0  0.11827435282583618  0.14671609407353486  0.9384638540005078  1.0000
  C   C6        1.0  0.881725647593568  0.6467160942541248  0.5615361461460618  1.0000
  C   C7        1.0  0.8817256481427889  0.8532839058219335  0.06153614648148769  1.0000
  C   C8        1.0  0.11827435217348009  0.353283906107055  0.4384638543278608  1.0000
  C   C9        1.0  0.8416290238256391  0.0903268094844926  0.7204035310895652  1.0000
  C   C10       1.0  0.15837097539218803  0.5903268091993711  0.7795964690489314  1.0000
  C   C11       1.0  0.15837097594140898  0.9096731908766872  0.27959646938435734  1.0000
  C   C12       1.0  0.84162902437486  0.4096731906960973  0.22040353142499114  1.0000
  C   C13       1.0  0.9818223985246235  0.10055038782432373  0.6606193672719646  1.0000
  C   C14       1.0  0.018177601894780505  0.6005503875392022  0.839380632874605  1.0000
  C   C15       1.0  0.018177602444001413  0.8994496125368561  0.3393806332100308  1.0000
  C   C16       1.0  0.9818223978722675  0.39944961235626614  0.16061936759931764  1.0000
  C   C17       1.0  0.9092497079061103  0.13602569966938455  0.5039399821089244  1.0000
  C   C18       1.0  0.09075029251329379  0.6360256998499745  0.996060018037645  1.0000
  C   C19       1.0  0.0907502918609378  0.8639743002260839  0.49606001836499813  1.0000
  C   C20       1.0  0.9092497078676527  0.36397430051120533  0.0039399812561210215  1.0000
  C   C21       1.0  0.18666463035840034  0.19541678062386458  0.7235671170144761  1.0000
  C   C22       1.0  0.8133353700610038  0.6954167803387431  0.7764328831320936  1.0000
  C   C23       1.0  0.8133353706102247  0.8045832192716038  0.2764328834675194  1.0000
  C   C24       1.0  0.18666462911836584  0.3045832195567253  0.22356711615359978  1.0000
  C   C25       1.0  0.26840662771553775  0.07911588013781515  0.8024666085536052  1.0000
  C   C26       1.0  0.7315933727038664  0.5791158803184051  0.6975333915929645  1.0000
  C   C27       1.0  0.7315933732530873  0.9208841197576533  0.19753339192839028  1.0000
  C   C28       1.0  0.2684066270631817  0.4208841200427748  0.3024666088809582  1.0000
  C   C29       1.0  0.10525091748518428  0.04413015671295841  0.676449508634603  1.0000
  C   C30       1.0  0.8947490829342198  0.5441301568935484  0.8235504915119666  1.0000
  C   C31       1.0  0.8947490834834407  0.95586984318251  0.3235504918473925  1.0000
  C   C32       1.0  0.10525091683282821  0.4558698430019201  0.17644950896195602  1.0000
  S   S1        1.0  0.9695669893273949  0.08400085551609535  0.9359434109252834  1.0000
  S   S2        1.0  0.030433011092009184  0.5840008556966853  0.5640565892212861  1.0000
  S   S3        1.0  0.03043301043965312  0.9159991443793731  0.06405658954863916  1.0000
  S   S4        1.0  0.9695669898766157  0.41599914419878314  0.43594341126070935  1.0000
  S   S5        1.0  0.08786541397275904  0.18578506232412784  0.5079629513124571  1.0000
  S   S6        1.0  0.9121345846573896  0.6857850625047178  0.9920370476378102  1.0000
  S   S7        1.0  0.9121345852066105  0.8142149375713407  0.49203704797323616  1.0000
  S   S8        1.0  0.08786541452198002  0.3142149373907507  0.00796295164788301  1.0000
  I   I1        1.0  0.768205376310542  0.1503907591137097  0.044968631090532216  1.0000
  I   I2        1.0  0.23179462341804857  0.6503907592942997  0.455031368530587  1.0000
  I   I3        1.0  0.23179462286882765  0.8496092407817588  0.9550313681951611  1.0000
  I   I4        1.0  0.768205376962898  0.34960924106688024  0.5449686307631791  1.0000
  I   I5        1.0  0.5835525980977797  0.23522747391064697  0.15372827569319544  1.0000
  I   I6        1.0  0.41644740163081095  0.7352274740912369  0.34627172392792377  1.0000
  I   I7        1.0  0.41644740166926836  0.7647725259848214  0.8462717247807272  1.0000
  I   I8        1.0  0.5835525975485587  0.26477252580423155  0.6537282753577696  1.0000
  I   I9        1.0  0.29251222751835576  0.11273692573068642  0.4069183635609858  1.0000
  I   I10       1.0  0.7074877722102347  0.6127369254455649  0.09308163606013337  1.0000
  I   I11       1.0  0.7074877716610138  0.8872630741647821  0.5930816357247075  1.0000
  I   I12       1.0  0.2925122275568133  0.3872630744499035  0.9069183644137891  1.0000
  I   I13       1.0  0.4857674840717394  0.04194108681185649  0.27948392840360675  1.0000
  I   I14       1.0  0.5142325156568511  0.5419410869924464  0.22051607121751246  1.0000
  I   I15       1.0  0.5142325156953086  0.958058913083612  0.7205160720703159  1.0000
  I   I16       1.0  0.48576748352251853  0.45805891336873344  0.7794839280681809  1.0000
