data_image0
_chemical_formula_structural       H52C46O18
_chemical_formula_sum              "H52 C46 O18"
_cell_length_a       8.192684046291793
_cell_length_b       12.160169168011628
_cell_length_c       11.414149791281709
_cell_angle_alpha    90.0
_cell_angle_beta     99.58395483234057
_cell_angle_gamma    90.0

_space_group_name_H-M_alt    "P 1"
_space_group_IT_number       1

loop_
  _space_group_symop_operation_xyz
  'x, y, z'

loop_
  _atom_site_type_symbol
  _atom_site_label
  _atom_site_symmetry_multiplicity
  _atom_site_fract_x
  _atom_site_fract_y
  _atom_site_fract_z
  _atom_site_occupancy
  H   H1        1.0  0.027634860168363955  0.9428087275429454  0.1125040411201162  1.0000
  H   H2        1.0  0.9723651396925247  0.44280872787236636  0.8874959588198733  1.0000
  H   H3        1.0  0.3483543494276327  0.6407447752039818  0.008463625414182623  1.0000
  H   H4        1.0  0.6516456516710275  0.14074477471104566  0.9915363746852479  1.0000
  H   H5        1.0  0.5912477802728192  0.2651602609675896  0.5847014566949308  1.0000
  H   H6        1.0  0.4087522195880695  0.7651602614605257  0.4152985432450587  1.0000
  H   H7        1.0  0.6532150108864656  0.9157534509711808  0.5531555245575425  1.0000
  H   H8        1.0  0.3467849901959122  0.41575345130060165  0.44684447641597186  1.0000
  H   H9        1.0  0.6301333266972711  0.08080361682671128  0.6780226928453582  1.0000
  H   H10       1.0  0.3698666731636176  0.5808036173196474  0.3219773070946313  1.0000
  H   H11       1.0  0.5839621562046796  0.2870464326419198  0.36609078463897743  1.0000
  H   H12       1.0  0.41603784365620916  0.7870464323124989  0.6339092153010121  1.0000
  H   H13       1.0  0.6016886043858511  0.12163470421866303  0.24125740408117033  1.0000
  H   H14       1.0  0.39831139545875494  0.6216347038892421  0.758742596732903  1.0000
  H   H15       1.0  0.7024901061175675  0.7827045428806569  0.15857052798427085  1.0000
  H   H16       1.0  0.29750989374332126  0.2827045423877209  0.8414294719557186  1.0000
  H   H17       1.0  0.6515241792505655  0.8242147482919308  0.9411586680319306  1.0000
  H   H18       1.0  0.3484758206103232  0.3242147486213516  0.05884133190805878  1.0000
  H   H19       1.0  0.25420738960107914  0.05127236318719311  0.9938329686601305  1.0000
  H   H20       1.0  0.7457926114812986  0.5512723636801292  0.006167032313383816  1.0000
  H   H21       1.0  0.9983832899608029  0.16139150556907148  0.9371586239439492  1.0000
  H   H22       1.0  0.0016167099000857397  0.6613915052396506  0.0628413759960404  1.0000
  H   H23       1.0  0.8916678545218275  0.19988795932165898  0.7260893312740527  1.0000
  H   H24       1.0  0.10833214657683284  0.6998879598145951  0.2739106688253776  1.0000
  H   H25       1.0  0.04151809558716864  0.1308369487313763  0.5681370597157241  1.0000
  H   H26       1.0  0.95848190427372  0.6308369484019555  0.4318629402242653  1.0000
  H   H27       1.0  0.30143499430306353  0.02127667439698176  0.6245247856883435  1.0000
  H   H28       1.0  0.6985650055578252  0.5212766748899179  0.37547521425164615  1.0000
  H   H29       1.0  0.14371763079941913  0.20360307457834806  0.13895038385362377  1.0000
  H   H30       1.0  0.8562823690614696  0.7036030742489272  0.8610496160863658  1.0000
  H   H31       1.0  0.256587821112691  0.2423856255021124  0.27825773812497756  1.0000
  H   H32       1.0  0.7434121787481976  0.7423856251726916  0.7217422618150119  1.0000
  H   H33       1.0  0.07386581431994378  0.39787185220475985  0.19487296396049753  1.0000
  H   H34       1.0  0.926134185540945  0.897871851875339  0.805127035979492  1.0000
  H   H35       1.0  0.005159779073067096  0.34631290336634346  0.3230537000359359  1.0000
  H   H36       1.0  0.9948402207878217  0.8463129030369225  0.6769462999040536  1.0000
  H   H37       1.0  0.8975220579180436  0.31137770270174087  0.18014145123611494  1.0000
  H   H38       1.0  0.1024779419428451  0.8113777031946771  0.8198585487038745  1.0000
  H   H39       1.0  0.2534068318256875  0.9193024081775926  0.18327110619493267  1.0000
  H   H40       1.0  0.7465931692729727  0.4193024085070134  0.8167288939044978  1.0000
  H   H41       1.0  0.296324295391091  0.04490606770804407  0.34013630943533263  1.0000
  H   H42       1.0  0.7036757044697978  0.5449060682009802  0.6598636905046569  1.0000
  H   H43       1.0  0.04479591841325654  0.148086032777984  0.3793696580444952  1.0000
  H   H44       1.0  0.9552040814476322  0.6480860324485631  0.6206303418954944  1.0000
  H   H45       1.0  0.9372297548754374  0.10472589422111092  0.24074282724351836  1.0000
  H   H46       1.0  0.06277024498545133  0.6047258938916901  0.7592571726964711  1.0000
  H   H47       1.0  0.18403042925918855  0.8580573391567494  0.3732378881175872  1.0000
  H   H48       1.0  0.8159695705854176  0.3580573394861703  0.6267621126964863  1.0000
  H   H49       1.0  0.9786406245835955  0.9070327285425026  0.3320549089914821  1.0000
  H   H50       1.0  0.021359375277293237  0.4070327288719235  0.6679450909485074  1.0000
  H   H51       1.0  0.10549259233670205  0.957652393573088  0.46223273256357383  1.0000
  H   H52       1.0  0.8945074075241866  0.45765239390250884  0.5377672673764157  1.0000
  C   C1        1.0  0.6288218953052137  0.00877195526856654  0.39000198570254196  1.0000
  C   C2        1.0  0.371178104555675  0.5087719549391456  0.6099980142374476  1.0000
  C   C3        1.0  0.605346452667179  0.19379009596338756  0.529798130397169  1.0000
  C   C4        1.0  0.3946535484314812  0.6937900956339667  0.4702018697022614  1.0000
  C   C5        1.0  0.6383135237945087  0.9973330783837335  0.5133099122244035  1.0000
  C   C6        1.0  0.36168647606638  0.49733307789079745  0.4866900877155861  1.0000
  C   C7        1.0  0.6253657758171782  0.08995700922299489  0.5827162430894943  1.0000
  C   C8        1.0  0.3746342240437106  0.5899570097159309  0.4172837568504952  1.0000
  C   C9        1.0  0.5995714046289342  0.20597399636419308  0.4073679549771301  1.0000
  C   C10       1.0  0.40042859523195445  0.7059739960347722  0.5926320449628595  1.0000
  C   C11       1.0  0.6098718534691733  0.1134484776436361  0.3370737353194313  1.0000
  C   C12       1.0  0.39012814639171545  0.6134484773142153  0.6629262646205581  1.0000
  C   C13       1.0  0.6364330863833297  0.9077788620768837  0.3193743978865955  1.0000
  C   C14       1.0  0.363566913477559  0.4077788615839476  0.6806256020533941  1.0000
  C   C15       1.0  0.6004090117843961  0.8378484278657412  0.12145288730314391  1.0000
  C   C16       1.0  0.3995909880764925  0.33784842737280507  0.8785471126368455  1.0000
  C   C17       1.0  0.6343178542676292  0.888634966397177  0.0055560836729873575  1.0000
  C   C18       1.0  0.365682145576977  0.3886349667265979  0.994443917141086  1.0000
  C   C19       1.0  0.7915340408508409  0.9584545164601329  0.03275602913066834  1.0000
  C   C20       1.0  0.20846595901004783  0.4584545159671967  0.9672439708093212  1.0000
  C   C21       1.0  0.4408311770826208  0.7703626200071827  0.10153655193831665  1.0000
  C   C22       1.0  0.559168822778268  0.2703626203366036  0.8984634480016729  1.0000
  C   C23       1.0  0.4443713161519031  0.9618187977817791  0.841835711768563  1.0000
  C   C24       1.0  0.5556286849467571  0.46181879811119997  0.15816428833086743  1.0000
  C   C25       1.0  0.29242394040913544  0.02830258816672993  0.8118987077344896  1.0000
  C   C26       1.0  0.7075760594517533  0.528302588659666  0.1881012922054999  1.0000
  C   C27       1.0  0.20790742736409865  0.06842944357953067  0.9007241089412197  1.0000
  C   C28       1.0  0.79209257249679  0.5684294440724668  0.09927589099876986  1.0000
  C   C29       1.0  0.06460725985103423  0.13033249933472346  0.8689922892928843  1.0000
  C   C30       1.0  0.9353927400098545  0.6303324998276596  0.13100771064710523  1.0000
  C   C31       1.0  0.004444767758414563  0.15188242568684585  0.7493533779158087  1.0000
  C   C32       1.0  0.995555232102474  0.6518824253574249  0.25064662202418087  1.0000
  C   C33       1.0  0.08835024663362662  0.11240230305311597  0.6610720117909674  1.0000
  C   C34       1.0  0.911649753227262  0.6124023035460521  0.33892798814902214  1.0000
  C   C35       1.0  0.2325046651406629  0.05104106706284323  0.6919632421038965  1.0000
  C   C36       1.0  0.7674953347202257  0.5510410667334223  0.308036757836093  1.0000
  C   C37       1.0  0.1310640367553783  0.2241872265372249  0.23089087715322315  1.0000
  C   C38       1.0  0.8689359631055104  0.7241872270301609  0.7691091227867665  1.0000
  C   C39       1.0  0.02137379281881461  0.3254062024407699  0.23202351571912794  1.0000
  C   C40       1.0  0.9786262070420741  0.825406202111349  0.7679764842208615  1.0000
  C   C41       1.0  0.16935636892515127  0.02262150601684269  0.2991605419064193  1.0000
  C   C42       1.0  0.8306436309357375  0.5226215065097788  0.7008394580335702  1.0000
  C   C43       1.0  0.06160475946184433  0.1251520500227423  0.28881559352795727  1.0000
  C   C44       1.0  0.9383952403990443  0.6251520496933215  0.7111844064120323  1.0000
  C   C45       1.0  0.10539034680864252  0.9312478957767384  0.37034069978394774  1.0000
  C   C46       1.0  0.8946096530522462  0.4312478952838023  0.6296593001560418  1.0000
  O   O1        1.0  0.6780624810990012  0.8166688442233112  0.3584627466093868  1.0000
  O   O2        1.0  0.321937518745605  0.31666884455273214  0.6415372542046865  1.0000
  O   O3        1.0  0.5884343163379973  0.9278463731968709  0.20017849286577097  1.0000
  O   O4        1.0  0.4115656835228914  0.4278463735262918  0.7998215070742185  1.0000
  O   O5        1.0  0.9203609154868972  0.8978496350791525  0.07206300371279582  1.0000
  O   O6        1.0  0.07963908561176306  0.39784963458621636  0.9279369963866345  1.0000
  O   O7        1.0  0.7935775542414908  0.05994839709283417  0.022890628052966412  1.0000
  O   O8        1.0  0.20642244561939796  0.5599483967634133  0.9771093718870231  1.0000
  O   O9        1.0  0.4931735654679062  0.9548111534947109  0.9623871941777468  1.0000
  O   O10       1.0  0.5068264356307541  0.4548111538241317  0.037612805921683555  1.0000
  O   O11       1.0  0.5212511061720713  0.9172866072737299  0.7715475426466941  1.0000
  O   O12       1.0  0.47874889368881746  0.41728660678079377  0.22845245729329544  1.0000
  O   O13       1.0  0.44649067894565647  0.6951663067514915  0.0194663800497285  1.0000
  O   O14       1.0  0.5535093209152323  0.19516630625855538  0.980533619890261  1.0000
  O   O15       1.0  0.32629258874061245  0.7851662857714341  0.1574339830551468  1.0000
  O   O16       1.0  0.6737074123580478  0.28516628610085504  0.8425660170442838  1.0000
  O   O17       1.0  0.1794458961693791  0.9845446526758839  0.1787022422080948  1.0000
  O   O18       1.0  0.8205541036915095  0.4845446521829478  0.8212977577318946  1.0000
