data_image0
_chemical_formula_structural       H56C48O18
_chemical_formula_sum              "H56 C48 O18"
_cell_length_a       8.394559216185685
_cell_length_b       12.305158802030933
_cell_length_c       11.438841973766674
_cell_angle_alpha    90.0
_cell_angle_beta     98.25388792530211
_cell_angle_gamma    90.0

_space_group_name_H-M_alt    "P 1"
_space_group_IT_number       1

loop_
  _space_group_symop_operation_xyz
  'x, y, z'

loop_
  _atom_site_type_symbol
  _atom_site_label
  _atom_site_symmetry_multiplicity
  _atom_site_fract_x
  _atom_site_fract_y
  _atom_site_fract_z
  _atom_site_occupancy
  H   H1        1.0  0.9974907397219931  0.7348470373667649  0.8943386816742686  1.0000
  H   H2        1.0  0.002509260269168323  0.23484703744928845  0.10566131837053816  1.0000
  H   H3        1.0  0.36659946141442523  0.6209506356585087  0.06128956956410607  1.0000
  H   H4        1.0  0.6334005385767361  0.12095063574103224  0.9387104304807005  1.0000
  H   H5        1.0  0.31365521029805626  0.584022447464383  0.8444636910123763  1.0000
  H   H6        1.0  0.6863447896931051  0.08402244754690659  0.15553630903243026  1.0000
  H   H7        1.0  0.6472402840960407  0.43431398131310084  0.9792159192440946  1.0000
  H   H8        1.0  0.3527597158951207  0.9343139812305773  0.02078408080071208  1.0000
  H   H9        1.0  0.7528034033906466  0.8494903396350109  0.00812055269814546  1.0000
  H   H10       1.0  0.24719659660051485  0.34949033971753446  0.9918794473466612  1.0000
  H   H11       1.0  0.004886572204438317  0.9532756081184391  0.06701812606495357  1.0000
  H   H12       1.0  0.9951134277867232  0.4532756082009627  0.9329818739798531  1.0000
  H   H13       1.0  0.10043782274282662  0.9901329902373227  0.2776466791746709  1.0000
  H   H14       1.0  0.8995621772483349  0.4901329903198464  0.7223533208701357  1.0000
  H   H15       1.0  0.9416960047095159  0.9264492424200527  0.43257675304485455  1.0000
  H   H16       1.0  0.05830399528164546  0.42644924250257626  0.5674232469999521  1.0000
  H   H17       1.0  0.6876998213446579  0.8215466921346432  0.37400347035439874  1.0000
  H   H18       1.0  0.31230017864650345  0.3215466922171667  0.6259965296904079  1.0000
  H   H19       1.0  0.4281098005740662  0.9180029418340866  0.7601876165501964  1.0000
  H   H20       1.0  0.5718901994170952  0.41800294191661014  0.23981238349461018  1.0000
  H   H21       1.0  0.43231474781410595  0.08073623071292912  0.6322692675169875  1.0000
  H   H22       1.0  0.5676852521770555  0.5807362306304056  0.36773073252781907  1.0000
  H   H23       1.0  0.4027505602367996  0.05818879394565981  0.41343574100022684  1.0000
  H   H24       1.0  0.5972494397543617  0.5581887938631361  0.5865642590445797  1.0000
  H   H25       1.0  0.3588724991474273  0.8752005360729297  0.3233048777603603  1.0000
  H   H26       1.0  0.641127500843734  0.37520053615545323  0.6766951222844463  1.0000
  H   H27       1.0  0.34990592955868816  0.7129937167939643  0.451721755300864  1.0000
  H   H28       1.0  0.6500940704324731  0.21299371687648797  0.5482782447439426  1.0000
  H   H29       1.0  0.7727662786522769  0.7153562478646891  0.8243429784386296  1.0000
  H   H30       1.0  0.22723372133888456  0.21535624794721267  0.17565702160617705  1.0000
  H   H31       1.0  0.7430219450200278  0.850636833575233  0.6741629688077019  1.0000
  H   H32       1.0  0.25697805497113346  0.3506368336577566  0.3258370312371047  1.0000
  H   H33       1.0  0.01037342241868461  0.9224739129840825  0.6253588919080829  1.0000
  H   H34       1.0  0.9896265775724769  0.4224739130666062  0.3746411081367237  1.0000
  H   H35       1.0  0.10593875113939649  0.8622890879107346  0.7559850543133754  1.0000
  H   H36       1.0  0.8940612488517649  0.36228908799325815  0.24401494573143118  1.0000
  H   H37       1.0  0.9321351168022349  0.979814407434552  0.870732980695438  1.0000
  H   H38       1.0  0.0678648831889264  0.4798144075170756  0.1292670193493686  1.0000
  H   H39       1.0  0.21815640981972395  0.027717959230538877  0.8507685814448295  1.0000
  H   H40       1.0  0.7818435901714375  0.5277179591480152  0.14923141859997713  1.0000
  H   H41       1.0  0.09656379119915497  0.14520347756138682  0.8586023214429198  1.0000
  H   H42       1.0  0.9034362087920065  0.6452034774788632  0.14139767860188687  1.0000
  H   H43       1.0  0.14850112780925145  0.10273249377255962  0.7207305277584014  1.0000
  H   H44       1.0  0.8514988721819099  0.602732493690036  0.27926947228640514  1.0000
  H   H45       1.0  0.8012453575091286  0.6562680392769221  0.6296852538787415  1.0000
  H   H46       1.0  0.1987546424820327  0.15626803935944575  0.37031474616606513  1.0000
  H   H47       1.0  0.011501262666800193  0.6827304234881895  0.6584488485628022  1.0000
  H   H48       1.0  0.9884987373243612  0.18273042357071304  0.3415511514820045  1.0000
  H   H49       1.0  0.8905555089909462  0.7464537449515892  0.5372887484147763  1.0000
  H   H50       1.0  0.10944449100021525  0.24645374503411277  0.4627112516300304  1.0000
  H   H51       1.0  0.7107006859206265  0.0270791450448412  0.7065580718348877  1.0000
  H   H52       1.0  0.2892993140705347  0.5270791449623176  0.2934419282099189  1.0000
  H   H53       1.0  0.8521239802037903  0.09638061881852818  0.6322215561669101  1.0000
  H   H54       1.0  0.1478760197873711  0.5963806187360046  0.3677784438778965  1.0000
  H   H55       1.0  0.8058558926591691  0.14590313452140746  0.7691959060010377  1.0000
  H   H56       1.0  0.19414410733199222  0.6459031344388838  0.23080409404376898  1.0000
  C   C1        1.0  0.22447835454417928  0.752194324259541  0.9753262709220734  1.0000
  C   C2        1.0  0.7755216454469821  0.2521943243420646  0.024673729122733353  1.0000
  C   C3        1.0  0.38036925095498947  0.6859565346370718  0.9975632917207027  1.0000
  C   C4        1.0  0.6196307490361719  0.1859565347195954  0.002436708324104045  1.0000
  C   C5        1.0  0.4136485405115854  0.6376022850436577  0.8806229406831332  1.0000
  C   C6        1.0  0.586351459479576  0.137602284313514  0.11937705936167345  1.0000
  C   C7        1.0  0.5670592186488208  0.569281096058982  0.8963482002155068  1.0000
  C   C8        1.0  0.43294078134234054  0.0692810961415057  0.10365179982929991  1.0000
  C   C9        1.0  0.559389382330674  0.7617789831735351  0.1585209069626143  1.0000
  C   C10       1.0  0.44061061766048737  0.26177898244339154  0.8414790930821923  1.0000
  C   C11       1.0  0.706057798759641  0.8279805123943973  0.1883785155285046  1.0000
  C   C12       1.0  0.29394220123152043  0.327980512476921  0.811621484516302  1.0000
  C   C13       1.0  0.7938330215131663  0.8661816520596909  0.1009993692724971  1.0000
  C   C14       1.0  0.2061669784779951  0.3661816521422145  0.8990006307723095  1.0000
  C   C15       1.0  0.9351012890758575  0.9245720703841918  0.13389753525593254  1.0000
  C   C16       1.0  0.06489871091530382  0.4245720696540481  0.8661024647888741  1.0000
  C   C17       1.0  0.9891099060488899  0.9450820397442252  0.25316437725980706  1.0000
  C   C18       1.0  0.010890093942271419  0.4450820398267488  0.7468356227849995  1.0000
  C   C19       1.0  0.9007590964349081  0.9084834572110465  0.3399299960174564  1.0000
  C   C20       1.0  0.09924090355625313  0.40848345729357  0.6600700040273503  1.0000
  C   C21       1.0  0.7593161412125192  0.8500135665273721  0.3078626724291841  1.0000
  C   C22       1.0  0.24068385877864218  0.3500135666098959  0.6921373276156225  1.0000
  C   C23       1.0  0.37975491713578136  0.7068688905147976  0.6848410034301278  1.0000
  C   C24       1.0  0.6202450840589712  0.2068688905973211  0.31515899675409315  1.0000
  C   C25       1.0  0.38807622682280557  0.8057574997214633  0.6132176780455715  1.0000
  C   C26       1.0  0.6119237731683558  0.3057574989913196  0.38678232199923523  1.0000
  C   C27       1.0  0.41207474167307845  0.9092500982720657  0.6645298670058143  1.0000
  C   C28       1.0  0.5879252583180828  0.4092500983545893  0.33547013303899237  1.0000
  C   C29       1.0  0.4142748956747625  0.0003084161741475151  0.5925121314188286  1.0000
  C   C30       1.0  0.5857251043163989  0.5003084160916239  0.407487868625978  1.0000
  C   C31       1.0  0.3957697547366321  0.9878189185168262  0.4698576320692877  1.0000
  C   C32       1.0  0.6042302452545293  0.48781891859934984  0.530142367975519  1.0000
  C   C33       1.0  0.3725073828405087  0.884910671628456  0.41870838790407644  1.0000
  C   C34       1.0  0.6274926171506527  0.38491067171097965  0.5812916121407302  1.0000
  C   C35       1.0  0.3678559701877107  0.7938369855403874  0.4900727201838246  1.0000
  C   C36       1.0  0.6321440298034507  0.29383698562291105  0.509927279860982  1.0000
  C   C37       1.0  0.8609721824243284  0.8143875476313264  0.7074725496011722  1.0000
  C   C38       1.0  0.1390278175668331  0.31438754690118265  0.2925274504436344  1.0000
  C   C39       1.0  0.9924661966909718  0.9004915294690194  0.7159893567408376  1.0000
  C   C40       1.0  0.007533803300189531  0.400491529551543  0.28401064330396913  1.0000
  C   C41       1.0  0.9632125413263368  0.004291766636224452  0.7841176344873997  1.0000
  C   C42       1.0  0.03678745868218997  0.5042917665537008  0.2158823646851131  1.0000
  C   C43       1.0  0.11565933361743762  0.07356528059195741  0.805090046592573  1.0000
  C   C44       1.0  0.8843406663737238  0.5735652805094338  0.19490995345223364  1.0000
  C   C45       1.0  0.89326200307885  0.7194402341673856  0.6290555059267569  1.0000
  C   C46       1.0  0.10673799692967699  0.21944023424990922  0.370944493245756  1.0000
  C   C47       1.0  0.8249923512973452  0.07162636128308492  0.7198104571378066  1.0000
  C   C48       1.0  0.1750076486938163  0.5716263612005613  0.28018954290700016  1.0000
  O   O1        1.0  0.10181728090760515  0.6914368385555283  0.9336836935860368  1.0000
  O   O2        1.0  0.8981827190835563  0.19143683863805194  0.06631630645876987  1.0000
  O   O3        1.0  0.5526505287104044  0.4885525548039073  0.9695857661353073  1.0000
  O   O4        1.0  0.44734947128075686  0.9885525547213837  0.03041423390949927  1.0000
  O   O5        1.0  0.6841105488929825  0.5873321081242096  0.8454656679284741  1.0000
  O   O6        1.0  0.31588945109817895  0.08733210820673314  0.15453433211633244  1.0000
  O   O7        1.0  0.21803997971974431  0.8515745508518354  0.990999034360412  1.0000
  O   O8        1.0  0.781960020271417  0.35157455012169175  0.009000965684394548  1.0000
  O   O9        1.0  0.5157312824763124  0.7530370285404714  0.038653832261091474  1.0000
  O   O10       1.0  0.484268717514849  0.25303702862299504  0.9613461677837151  1.0000
  O   O11       1.0  0.4828852623470064  0.7178920493526674  0.22886742920575093  1.0000
  O   O12       1.0  0.517114737644155  0.21789204943519105  0.7711325708390557  1.0000
  O   O13       1.0  0.4261049528657587  0.727183323999292  0.8030373863486577  1.0000
  O   O14       1.0  0.5738950471254027  0.22718332408181569  0.19696261369614904  1.0000
  O   O15       1.0  0.3368366233875774  0.6169292507421407  0.6474632792933707  1.0000
  O   O16       1.0  0.6631633766035839  0.11692925082466425  0.35253672075143594  1.0000
  O   O17       1.0  0.8503871876134786  0.7766798514150517  0.827836615499865  1.0000
  O   O18       1.0  0.1496128123776828  0.2766798514975753  0.1721633845449417  1.0000
