data_image0
_chemical_formula_structural       H20C32N4O4F6I6
_chemical_formula_sum              "H20 C32 N4 O4 F6 I6"
_cell_length_a       7.632440401393283
_cell_length_b       10.743750498576972
_cell_length_c       13.38738187874417
_cell_angle_alpha    68.32707832836826
_cell_angle_beta     84.91267831616767
_cell_angle_gamma    77.92734237548055

_space_group_name_H-M_alt    "P 1"
_space_group_IT_number       1

loop_
  _space_group_symop_operation_xyz
  'x, y, z'

loop_
  _atom_site_type_symbol
  _atom_site_label
  _atom_site_symmetry_multiplicity
  _atom_site_fract_x
  _atom_site_fract_y
  _atom_site_fract_z
  _atom_site_occupancy
  H   H1        1.0  0.8250142276116328  0.324565006244096  0.13220153900561388  1.0000
  H   H2        1.0  0.17498577280411423  0.6754349939229278  0.8677984607529284  1.0000
  H   H3        1.0  0.9101010760002167  0.5537453575730351  0.7413761417857387  1.0000
  H   H4        1.0  0.08989892441553013  0.44625464259398906  0.2586238579728036  1.0000
  H   H5        1.0  0.11570315635258134  0.3600306030133508  0.8440611096469265  1.0000
  H   H6        1.0  0.8842968440391504  0.6399693967871148  0.15593889091546242  1.0000
  H   H7        1.0  0.645583801363996  0.6512108789403785  0.8335648377669361  1.0000
  H   H8        1.0  0.3544161993142196  0.3487891199079355  0.1664351627961922  1.0000
  H   H9        1.0  0.6118400554730372  0.5352605729637531  0.03450060813296353  1.0000
  H   H10       1.0  0.38815994363397816  0.4647394272006435  0.9654993916213441  1.0000
  H   H11       1.0  0.845683498305778  0.041799084426162564  0.061031467163888055  1.0000
  H   H12       1.0  0.15431650080123724  0.958200915738234  0.9389685325904196  1.0000
  H   H13       1.0  0.2984277316395155  0.20137339798499446  0.9912376215500848  1.0000
  H   H14       1.0  0.7015722674434847  0.7986266018128437  0.008762379008069482  1.0000
  H   H15       1.0  0.5216085781199491  0.07721936384961085  0.11970511396542186  1.0000
  H   H16       1.0  0.47839142096305126  0.9227806359482272  0.8802948865927325  1.0000
  H   H17       1.0  0.9168978358127213  0.14377305459367298  0.8629219753650187  1.0000
  H   H18       1.0  0.0831021645790103  0.8562269452067927  0.13707802519737025  1.0000
  H   H19       1.0  0.6722494102727609  0.2795281585369127  0.7339428940052782  1.0000
  H   H20       1.0  0.32775059011897073  0.720471841263553  0.2660571065571107  1.0000
  C   C1        1.0  0.21229233892279692  0.0076070587572884315  0.41826816547774975  1.0000
  C   C2        1.0  0.7877076614929501  0.9923929414097356  0.5817318342807926  1.0000
  C   C3        1.0  0.2852380002011284  0.03687096137493611  0.5819057556208855  1.0000
  C   C4        1.0  0.7147620001906033  0.9631290384255295  0.41809424494150355  1.0000
  C   C5        1.0  0.24378890061852995  0.8668107089511243  0.473864017325476  1.0000
  C   C6        1.0  0.7562110984884854  0.13318929121327214  0.5261359824288316  1.0000
  C   C7        1.0  0.31909816959200116  0.8950827944762139  0.6320686149095213  1.0000
  C   C8        1.0  0.6809018295150141  0.10491720568818266  0.3679313848447864  1.0000
  C   C9        1.0  0.23347412233163953  0.08978552021205106  0.4745856431280161  1.0000
  C   C10       1.0  0.7665258767513606  0.910214479585787  0.5254143574301381  1.0000
  C   C11       1.0  0.2986452116612236  0.8072222616362277  0.5807041112600351  1.0000
  C   C12       1.0  0.7013547887545233  0.19277773853079636  0.4192958884985073  1.0000
  C   C13       1.0  0.8379881900950381  0.3766185992467834  0.045873831299861695  1.0000
  C   C14       1.0  0.16201181032070877  0.6233814009202405  0.9541261684586806  1.0000
  C   C15       1.0  0.881662406989938  0.507109021515027  0.8268537760883925  1.0000
  C   C16       1.0  0.11833759240356122  0.49289097769721785  0.1731462236666545  1.0000
  C   C17       1.0  0.7381982846171069  0.5594494347610368  0.8784061993955689  1.0000
  C   C18       1.0  0.26180171579863987  0.4405505654059872  0.12159380036297338  1.0000
  C   C19       1.0  0.9834282067157087  0.3215544662925239  0.991166779196727  1.0000
  C   C20       1.0  0.016571792391306708  0.6784455338718727  0.008833220557580611  1.0000
  C   C21       1.0  0.7200568047013074  0.4932989098154122  0.9904344163410371  1.0000
  C   C22       1.0  0.27994319440570814  0.5067010903489843  0.0095655834132705  1.0000
  C   C23       1.0  0.740795782684679  0.09986054827192996  0.0028624831830341524  1.0000
  C   C24       1.0  0.2592042164223363  0.9001394518924667  0.9971375165712734  1.0000
  C   C25       1.0  0.4632972923636973  0.25311450558792736  0.855420051335712  1.0000
  C   C26       1.0  0.5367027067433182  0.746885494576469  0.14457994841859567  1.0000
  C   C27       1.0  0.5651556775366521  0.11925095615372448  0.036178693309931814  1.0000
  C   C28       1.0  0.43484432154634817  0.8807490436441137  0.9638213072482225  1.0000
  C   C29       1.0  0.7790264684107674  0.15860796551991171  0.8921814500533756  1.0000
  C   C30       1.0  0.2209735320049794  0.8413920346471123  0.1078185497051667  1.0000
  C   C31       1.0  0.6445663727027482  0.23465598887511457  0.8196386210522479  1.0000
  C   C32       1.0  0.35543362768898357  0.7653440109253512  0.18036137951014092  1.0000
  N   N1        1.0  0.9991359986155554  0.39318682328281834  0.8823446876681855  1.0000
  N   N2        1.0  0.0008640017761765499  0.6068131765176472  0.11765531289420339  1.0000
  N   N3        1.0  0.43386421549933885  0.19280494407522933  0.9641515623624786  1.0000
  N   N4        1.0  0.5661357849164079  0.8071950560917946  0.03584843739606376  1.0000
  O   O1        1.0  0.09716536003183456  0.2124736101887674  0.03545444290748437  1.0000
  O   O2        1.0  0.9028346403839124  0.7875263899782565  0.964545556851058  1.0000
  O   O3        1.0  0.328268110080942  0.3192714590589409  0.7941049101666754  1.0000
  O   O4        1.0  0.6717318890260735  0.6807285411054557  0.20589508958763217  1.0000
  F   F1        1.0  0.37131105395080893  0.8400637922968065  0.7363757531439769  1.0000
  F   F2        1.0  0.628688946464938  0.15993620787021726  0.26362424661456546  1.0000
  F   F3        1.0  0.20204361239346633  0.22726340133066214  0.4229272993373243  1.0000
  F   F4        1.0  0.797956386713549  0.7727365988337344  0.5770727004169832  1.0000
  F   F5        1.0  0.21909729006129086  0.7845123901006428  0.4222824931947618  1.0000
  F   F6        1.0  0.7809027090457245  0.2154876100637539  0.5777175065595458  1.0000
  I   I1        1.0  0.14399391586324278  0.09347165132448103  0.25489565295720057  1.0000
  I   I2        1.0  0.8560060845525042  0.906528348842543  0.7451043468013417  1.0000
  I   I3        1.0  0.3018652349066757  0.16590910655929725  0.6649882830800219  1.0000
  I   I4        1.0  0.6981347657955549  0.8340908926555751  0.33501171667925966  1.0000
  I   I5        1.0  0.33634532616212076  0.5950419376984118  0.6624662449682763  1.0000
  I   I6        1.0  0.6636546742536261  0.40495806246861227  0.33753375479026587  1.0000
