data_image0
_chemical_formula_structural       H56C84N8O24F12Cl4
_chemical_formula_sum              "H56 C84 N8 O24 F12 Cl4"
_cell_length_a       7.398954363501654
_cell_length_b       32.170869549545216
_cell_length_c       8.265799265262931
_cell_angle_alpha    90.0
_cell_angle_beta     92.73214889912444
_cell_angle_gamma    90.0

_space_group_name_H-M_alt    "P 1"
_space_group_IT_number       1

loop_
  _space_group_symop_operation_xyz
  'x, y, z'

loop_
  _atom_site_type_symbol
  _atom_site_label
  _atom_site_symmetry_multiplicity
  _atom_site_fract_x
  _atom_site_fract_y
  _atom_site_fract_z
  _atom_site_occupancy
  H   H1        1.0  0.8935804131850122  0.368798724626569  0.8787010888392209  1.0000
  H   H2        1.0  0.10641958714849264  0.8687987244782172  0.6212989110653823  1.0000
  H   H3        1.0  0.10641958695673068  0.6312012753875675  0.12129891168860944  1.0000
  H   H4        1.0  0.8935804129003906  0.13120127553591937  0.378701088251534  1.0000
  H   H5        1.0  0.6392473902471045  0.48735387167120076  0.5607418126576841  1.0000
  H   H6        1.0  0.36075261008640014  0.9873538715228489  0.9392581872469192  1.0000
  H   H7        1.0  0.3607526098946382  0.5126461283429358  0.4392581878701463  1.0000
  H   H8        1.0  0.6392473899624831  0.012646128491287587  0.06074181206999714  1.0000
  H   H9        1.0  0.7673263880791509  0.4989568552158366  0.8431499804806788  1.0000
  H   H10       1.0  0.23267361225435382  0.9989568550674848  0.6568500194239245  1.0000
  H   H11       1.0  0.23267361206259185  0.5010431447982999  0.1568500200471517  1.0000
  H   H12       1.0  0.7673263877945294  0.0010431449466517266  0.34314997989299173  1.0000
  H   H13       1.0  0.5817799310382956  0.38457778304518664  0.1984441071048343  1.0000
  H   H14       1.0  0.4182200688188257  0.884577783207675  0.3015558928353092  1.0000
  H   H15       1.0  0.4182200690105876  0.6154222169689498  0.801555892212082  1.0000
  H   H16       1.0  0.5817799313229173  0.11542221680646156  0.6984441076925213  1.0000
  H   H17       1.0  0.2291197385920687  0.33369782074018456  0.5028568329386702  1.0000
  H   H18       1.0  0.770880261741436  0.8336978205918326  0.997143166965933  1.0000
  H   H19       1.0  0.7708802614568145  0.666302179273952  0.49714316637824596  1.0000
  H   H20       1.0  0.22911973840030672  0.16630217942230385  0.0028568335618974526  1.0000
  H   H21       1.0  0.07221512925354377  0.29535131449794216  0.6773188552767376  1.0000
  H   H22       1.0  0.927784871079961  0.7953513146604306  0.8226811446278657  1.0000
  H   H23       1.0  0.9277848707953396  0.7046486852053542  0.32268114404017856  1.0000
  H   H24       1.0  0.07221512906178179  0.204648685353706  0.17731885589996485  1.0000
  H   H25       1.0  0.26821034132702365  0.47062361173305717  0.7792333897255498  1.0000
  H   H26       1.0  0.7317896590064812  0.9706236118955456  0.7207666101790534  1.0000
  H   H27       1.0  0.7317896587218596  0.5293763882810794  0.2207666095913664  1.0000
  H   H28       1.0  0.26821034113526165  0.029376388118590967  0.27923339034877703  1.0000
  H   H29       1.0  0.12106307168374249  0.4650528310078426  0.502758221956628  1.0000
  H   H30       1.0  0.878936927299872  0.9650528308594908  0.9972417779734047  1.0000
  H   H31       1.0  0.8789369283651407  0.5349471690062939  0.4972417773602883  1.0000
  H   H32       1.0  0.1210630714919805  0.03494716915464579  0.002758222579855172  1.0000
  H   H33       1.0  0.27907378474488126  0.17005791843998633  0.6824884447769581  1.0000
  H   H34       1.0  0.7209262155886236  0.6700579186024747  0.8175115551276452  1.0000
  H   H35       1.0  0.7209262153040019  0.8299420815741502  0.31751155453995816  1.0000
  H   H36       1.0  0.2790737845531193  0.3299420814116618  0.1824884454001853  1.0000
  H   H37       1.0  0.4577641450897058  0.33672329662451217  0.9049125394181604  1.0000
  H   H38       1.0  0.5422358553366585  0.8367232964761603  0.5950874616973569  1.0000
  H   H39       1.0  0.542235855052037  0.6632767033896243  0.09508746110967  1.0000
  H   H40       1.0  0.45776414480508426  0.1632767035379762  0.40491253883047346  1.0000
  H   H41       1.0  0.6214612072067021  0.27138322284246186  0.8472266242439047  1.0000
  H   H42       1.0  0.37853879177691246  0.7713832226941101  0.652773375686128  1.0000
  H   H43       1.0  0.3785387914922909  0.7286167771716747  0.15277337509844108  1.0000
  H   H44       1.0  0.6214612083648303  0.22861677732002653  0.34722662484170236  1.0000
  H   H45       1.0  0.10754483130477625  0.39618446216913583  0.3650985288833733  1.0000
  H   H46       1.0  0.8924551685523451  0.8961844623316242  0.1349014710567701  1.0000
  H   H47       1.0  0.892455168744107  0.6038155378450007  0.634901470433543  1.0000
  H   H48       1.0  0.10754483158939779  0.10381553768251234  0.8650985294710604  1.0000
  H   H49       1.0  0.5757074432220161  0.19610821461582742  0.7969451837466818  1.0000
  H   H50       1.0  0.4242925571114888  0.6961082144674756  0.7030548161579215  1.0000
  H   H51       1.0  0.4242925569197268  0.8038917853983092  0.20305481678114867  1.0000
  H   H52       1.0  0.5757074429373945  0.30389178554666096  0.2969451831589948  1.0000
  H   H53       1.0  0.4666525722241511  0.4479615227000827  0.14185570156307178  1.0000
  H   H54       1.0  0.5333474277258298  0.9479615225517308  0.3581442995879858  1.0000
  H   H55       1.0  0.5333474279175917  0.5520384773140538  0.8581442989647587  1.0000
  H   H56       1.0  0.46665257241591307  0.05203847746240562  0.6418557009398446  1.0000
  C   C1        1.0  0.694693837043805  0.42197461523671836  0.5589119829199471  1.0000
  C   C2        1.0  0.3053061632896998  0.9219746153992067  0.9410880169846562  1.0000
  C   C3        1.0  0.3053061630979378  0.5780253844665779  0.44108801760788335  1.0000
  C   C4        1.0  0.6946938367591836  0.07802538461492985  0.058911982332260096  1.0000
  C   C5        1.0  0.763728026687279  0.3880278716363285  0.6513216336900005  1.0000
  C   C6        1.0  0.2362719736462259  0.8880278717988169  0.8486783662146028  1.0000
  C   C7        1.0  0.2362719734544639  0.611972128377808  0.34867836683783  1.0000
  C   C8        1.0  0.7637280264026574  0.11197212821531967  0.1513216331023135  1.0000
  C   C9        1.0  0.6195001357134011  0.41960934065553823  0.388503533361538  1.0000
  C   C10       1.0  0.3804998642365798  0.9196093405071863  0.11149646778951963  1.0000
  C   C11       1.0  0.3804998644283417  0.5803906593585982  0.6114964671662926  1.0000
  C   C12       1.0  0.6195001359051631  0.08039065950695014  0.8885035327383107  1.0000
  C   C13       1.0  0.8396907317918046  0.43431559468673175  0.8717158984415231  1.0000
  C   C14       1.0  0.16030926863455974  0.9343155945383799  0.6282841026739944  1.0000
  C   C15       1.0  0.16030926834993822  0.5656844053274047  0.12828410208630742  1.0000
  C   C16       1.0  0.8396907315071832  0.06568440547575663  0.3717158978538361  1.0000
  C   C17       1.0  0.696281611442228  0.46155597992563147  0.6311939723493427  1.0000
  C   C18       1.0  0.3037183889841363  0.9615559800881198  0.8688060287661747  1.0000
  C   C19       1.0  0.30371838869951473  0.538444020088505  0.3688060281784877  1.0000
  C   C20       1.0  0.6962816111576066  0.0384440199260167  0.13119397176165573  1.0000
  C   C21       1.0  0.8383258494550813  0.39450156640790623  0.8072800240184399  1.0000
  C   C22       1.0  0.16167415087842354  0.8945015665703946  0.6927199758861633  1.0000
  C   C23       1.0  0.16167415059380205  0.6054984336062303  0.1927199752984764  1.0000
  C   C24       1.0  0.8383258492633192  0.10549843344374193  0.30728002464166704  1.0000
  C   C25       1.0  0.7667838180803078  0.46838088435234765  0.7875072448088255  1.0000
  C   C26       1.0  0.23321618225319699  0.9683808842039958  0.7124927550957777  1.0000
  C   C27       1.0  0.23321618206143502  0.5316191156617889  0.2124927557190049  1.0000
  C   C28       1.0  0.7667838177956864  0.03161911581014073  0.2875072442211386  1.0000
  C   C29       1.0  0.35205209228881645  0.28867505821369027  0.7618863035327954  1.0000
  C   C30       1.0  0.6479479080446884  0.7886750580653384  0.7381136963718079  1.0000
  C   C31       1.0  0.6479479078529263  0.7113249418004463  0.2381136969950351  1.0000
  C   C32       1.0  0.35205209200419485  0.2113249419487981  0.26188630294510834  1.0000
  C   C33       1.0  0.31271792971225015  0.3653143217624386  0.7246765794852  1.0000
  C   C34       1.0  0.6872820706212547  0.8653143219249271  0.775323420419403  1.0000
  C   C35       1.0  0.6872820703366331  0.634685678251698  0.27532341983171615  1.0000
  C   C36       1.0  0.31271792952048816  0.1346856780892095  0.2246765801084273  1.0000
  C   C37       1.0  0.3261369878967477  0.40528722513763443  0.8012744921091787  1.0000
  C   C38       1.0  0.673863012436757  0.9052872253001228  0.6987255077954246  1.0000
  C   C39       1.0  0.6738630122449951  0.5947127748765021  0.19872550841865178  1.0000
  C   C40       1.0  0.3261369876121262  0.09471277471401372  0.3012744915214917  1.0000
  C   C41       1.0  0.412285297756958  0.4104649633316073  0.9621563076648849  1.0000
  C   C42       1.0  0.5877147025765469  0.9104649634940957  0.5378436922397184  1.0000
  C   C43       1.0  0.5877147023847848  0.5895350363716889  0.03784369286294554  1.0000
  C   C44       1.0  0.41228529747233644  0.08953503652004083  0.4621563070771979  1.0000
  C   C45       1.0  0.18453571867835597  0.27400116327053436  0.6987143632105542  1.0000
  C   C46       1.0  0.8154642816551488  0.7740011631221825  0.801285636694049  1.0000
  C   C47       1.0  0.8154642814633868  0.7259988367436022  0.30128563731727614  1.0000
  C   C48       1.0  0.18453571839373448  0.22599883689195405  0.19871436262286735  1.0000
  C   C49       1.0  0.16050873318355147  0.23163309616246736  0.6714981972549038  1.0000
  C   C50       1.0  0.8394912671499533  0.7316330963249558  0.8285018026496996  1.0000
  C   C51       1.0  0.8394912669581913  0.7683669038516692  0.3285018032729267  1.0000
  C   C52       1.0  0.16050873289892992  0.26836690368918076  0.17149819666721675  1.0000
  C   C53       1.0  0.2565944819459807  0.4406737047678095  0.7185595296561695  1.0000
  C   C54       1.0  0.7434055170376338  0.9406737046194577  0.7814404702738634  1.0000
  C   C55       1.0  0.7434055181029026  0.559326295246327  0.2814404696607467  1.0000
  C   C56       1.0  0.256594483104109  0.059326295394678895  0.2185595302539671  1.0000
  C   C57       1.0  0.23415776970123758  0.3633869582541409  0.5656495302238914  1.0000
  C   C58       1.0  0.7658422306322673  0.8633869584166293  0.9343504696807119  1.0000
  C   C59       1.0  0.7658422304405053  0.6366130417599957  0.43435047030393903  1.0000
  C   C60       1.0  0.23415776941661606  0.13661304159750726  0.0656495296362044  1.0000
  C   C61       1.0  0.30006925614625235  0.20308213335478087  0.7053816927945424  1.0000
  C   C62       1.0  0.6999307441872524  0.703082133206429  0.7946183071100609  1.0000
  C   C63       1.0  0.6999307439026309  0.7969178666593557  0.29461830652237386  1.0000
  C   C64       1.0  0.30006925595449047  0.29691786680770754  0.2053816934177696  1.0000
  C   C65       1.0  0.17623389788043253  0.4376412638867896  0.5644135319335566  1.0000
  C   C66       1.0  0.8237661011031822  0.9376412637384377  0.9355864679964763  1.0000
  C   C67       1.0  0.8237661009114201  0.5623587361273469  0.4355864686197034  1.0000
  C   C68       1.0  0.17623389894570124  0.062358735964858615  0.06441353132044005  1.0000
  C   C69       1.0  0.4917972658076435  0.2601020347651215  0.7973705785264736  1.0000
  C   C70       1.0  0.5082027345258613  0.7601020349276099  0.7026294213781294  1.0000
  C   C71       1.0  0.5082027343340993  0.739897965249015  0.20262942200135667  1.0000
  C   C72       1.0  0.491797265523022  0.2398979650865266  0.2973705779387868  1.0000
  C   C73       1.0  0.16735169327609398  0.39868709020273646  0.48787568459346375  1.0000
  C   C74       1.0  0.8326483065810273  0.8986870903652248  0.01212431534667967  1.0000
  C   C75       1.0  0.8326483068656487  0.6013129098114001  0.5121243159343666  1.0000
  C   C76       1.0  0.16735169346785594  0.10131290964891174  0.9878756839702366  1.0000
  C   C77       1.0  0.46568977007409945  0.21777339742745747  0.7690715949790493  1.0000
  C   C78       1.0  0.5343102302594053  0.7177733975899458  0.7309284049255538  1.0000
  C   C79       1.0  0.5343102300676433  0.7822266025866791  0.23092840554878108  1.0000
  C   C80       1.0  0.46568976978947796  0.2822266024241907  0.2690715943913624  1.0000
  C   C81       1.0  0.9791874707051077  0.21521994857294363  0.6150139602738414  1.0000
  C   C82       1.0  0.020812528278506826  0.715219948735432  0.8849860396561915  1.0000
  C   C83       1.0  0.020812528086744858  0.7847800514411928  0.3849860402794187  1.0000
  C   C84       1.0  0.9791874717703765  0.28478005127870454  0.11501395966072477  1.0000
  N   N1        1.0  0.9200104107440545  0.4396432458320028  0.036490809452100224  1.0000
  N   N2        1.0  0.07998958911306682  0.9396432456836509  0.46350919048804323  1.0000
  N   N3        1.0  0.07998958930482879  0.5603567541821337  0.963509189864816  1.0000
  N   N4        1.0  0.920010411028676  0.06035675433048558  0.5364908100397873  1.0000
  N   N5        1.0  0.3807085590040264  0.33048407639793803  0.801648423373911  1.0000
  N   N6        1.0  0.6192914413294784  0.8304840765604264  0.6983515765306924  1.0000
  N   N7        1.0  0.6192914410448569  0.6695159233053583  0.1983515759430054  1.0000
  N   N8        1.0  0.38070855881226445  0.1695159234537101  0.3016484239971381  1.0000
  O   O1        1.0  0.5420401754221863  0.45023488493815855  0.323278490499184  1.0000
  O   O2        1.0  0.4579598244349351  0.9502348847898068  0.1767215094409595  1.0000
  O   O3        1.0  0.45795982462669704  0.549765115075978  0.6767215088177324  1.0000
  O   O4        1.0  0.5420401757068078  0.04976511522432978  0.823278491086871  1.0000
  O   O5        1.0  0.6443208546886946  0.38418176111048635  0.31418572340399353  1.0000
  O   O6        1.0  0.35567914516842664  0.8841817612729748  0.1858142765361499  1.0000
  O   O7        1.0  0.35567914536018863  0.6158182389036502  0.6858142759129228  1.0000
  O   O8        1.0  0.6443208549733163  0.1158182387411618  0.8141857239916805  1.0000
  O   O9        1.0  0.8872204935667719  0.4722825124947481  0.1093380848537489  1.0000
  O   O10       1.0  0.11277950629034944  0.9722825123463963  0.39066191508639453  1.0000
  O   O11       1.0  0.11277950657497096  0.5277174875193884  0.8906619156740816  1.0000
  O   O12       1.0  0.887220493758534  0.027717487667740254  0.6093380842305217  1.0000
  O   O13       1.0  0.016145683196874146  0.41103521276088517  0.09352990669717469  1.0000
  O   O14       1.0  0.9838543166602471  0.9110352129233735  0.40647009324296873  1.0000
  O   O15       1.0  0.9838543169448686  0.5889647872532513  0.9064700938306557  1.0000
  O   O16       1.0  0.016145683388636124  0.08896478709076297  0.5935299060739475  1.0000
  O   O17       1.0  0.49060714911050474  0.38063842573919826  0.037117625161262324  1.0000
  O   O18       1.0  0.5093928507466166  0.8806384259016866  0.46288237477888117  1.0000
  O   O19       1.0  0.5093928510312381  0.6193615742749383  0.9628823753665681  1.0000
  O   O20       1.0  0.4906071493951263  0.11936157411244994  0.5371176257489492  1.0000
  O   O21       1.0  0.407646787553251  0.44810837076686333  0.026549922521262755  1.0000
  O   O22       1.0  0.5923532123038703  0.9481083709293516  0.4734500774188807  1.0000
  O   O23       1.0  0.5923532124956323  0.5518916292472732  0.9734500767956534  1.0000
  O   O24       1.0  0.40764678783787256  0.051891629084784854  0.5265499231089498  1.0000
  F   F1        1.0  0.9897807038695429  0.1888737993432912  0.48484810098901626  1.0000
  F   F2        1.0  0.010219295987578373  0.6888737995057796  0.015151898951127115  1.0000
  F   F3        1.0  0.010219296179340356  0.8111262006708454  0.5151518983279  1.0000
  F   F4        1.0  0.9897807041541645  0.31112620050835693  0.9848481015767034  1.0000
  F   F5        1.0  0.8999821478286575  0.19249782013080666  0.7329088050295216  1.0000
  F   F6        1.0  0.10001785250484731  0.6924978199824547  0.7670911948750816  1.0000
  F   F7        1.0  0.10001785222022581  0.8075021798833298  0.26709119428739475  1.0000
  F   F8        1.0  0.8999821476368955  0.3075021800316817  0.2329088056527487  1.0000
  F   F9        1.0  0.8584456005091002  0.24554778750491285  0.5682761197832537  1.0000
  F   F10       1.0  0.1415543984745143  0.7455477876674013  0.9317238801467791  1.0000
  F   F11       1.0  0.14155439818989274  0.7544522125092237  0.43172387955909214  1.0000
  F   F12       1.0  0.8584456016672286  0.2544522123467353  0.06827612038105127  1.0000
  Cl  Cl1       1.0  0.7603994482915404  0.33715590538501106  0.5873876482602152  1.0000
  Cl  Cl2       1.0  0.23960055204196448  0.8371559055474994  0.9126123516443881  1.0000
  Cl  Cl3       1.0  0.23960055175734296  0.6628440946291254  0.4126123510567012  1.0000
  Cl  Cl4       1.0  0.7603994480997783  0.1628440944666371  0.08738764888344225  1.0000
