data_image0
_chemical_formula_structural       H32C100N28O28
_chemical_formula_sum              "H32 C100 N28 O28"
_cell_length_a       12.305323256032494
_cell_length_b       13.627271828011644
_cell_length_c       13.334297864208827
_cell_angle_alpha    90.0
_cell_angle_beta     112.21697700391073
_cell_angle_gamma    90.0

_space_group_name_H-M_alt    "P 1"
_space_group_IT_number       1

loop_
  _space_group_symop_operation_xyz
  'x, y, z'

loop_
  _atom_site_type_symbol
  _atom_site_label
  _atom_site_symmetry_multiplicity
  _atom_site_fract_x
  _atom_site_fract_y
  _atom_site_fract_z
  _atom_site_occupancy
  H   H1        1.0  0.6807357978256541  0.5440241292289327  0.3427932503026358  1.0000
  H   H2        1.0  0.8192642025672038  0.044024128789066336  0.15720674962266953  1.0000
  H   H3        1.0  0.3192642021802967  0.45597587091697744  0.6572067493901341  1.0000
  H   H4        1.0  0.18073579743874693  0.9559758706230213  0.8427932500701003  1.0000
  H   H5        1.0  0.6259358018917494  0.5530221144124344  0.5062104812981019  1.0000
  H   H6        1.0  0.8740641985605918  0.05302211470639071  0.9937895187668644  1.0000
  H   H7        1.0  0.37406419811420144  0.4469778857334757  0.4937895183946681  1.0000
  H   H8        1.0  0.12593580145440803  0.9469778854395194  0.006210481678968931  1.0000
  H   H9        1.0  0.624415773283293  0.4004731855999297  0.6089568848633515  1.0000
  H   H10       1.0  0.8755842262912672  0.9004731860397961  0.8910431149030554  1.0000
  H   H11       1.0  0.37558422672265784  0.5995268145459803  0.3910431148294184  1.0000
  H   H12       1.0  0.12441577372373261  0.09952681410611407  0.108956885542778  1.0000
  H   H13       1.0  0.6697121062865737  0.238707451576141  0.5460780312603506  1.0000
  H   H14       1.0  0.8302878941657675  0.7387074512821847  0.9539219688046158  1.0000
  H   H15       1.0  0.33028789371937706  0.7612925485697691  0.4539219684324194  1.0000
  H   H16       1.0  0.16971210584923238  0.2612925488637253  0.04607803164121761  1.0000
  H   H17       1.0  0.8626636538919051  0.2528803133519658  0.029304003467437233  1.0000
  H   H18       1.0  0.6373363456231719  0.7528803137918321  0.47069599615930885  1.0000
  H   H19       1.0  0.1373363461140457  0.7471196867939444  0.9706959962253328  1.0000
  H   H20       1.0  0.362663654382779  0.24711968635407797  0.5293040035334612  1.0000
  H   H21       1.0  0.8670968481659512  0.4179113143023696  0.9529566169714421  1.0000
  H   H22       1.0  0.6329031522863898  0.9179113140084133  0.5470433830935242  1.0000
  H   H23       1.0  0.1329031518399995  0.5820886858435406  0.04704338272132785  1.0000
  H   H24       1.0  0.3670968477286099  0.0820886854036742  0.45295661735230913  1.0000
  H   H25       1.0  0.8093186246634871  0.566525117238118  0.032328321410354424  1.0000
  H   H26       1.0  0.6906813757293707  0.06652511679825174  0.467671678514951  1.0000
  H   H27       1.0  0.19068137534246368  0.43347488290779207  0.9676716782824155  1.0000
  H   H28       1.0  0.30931862427658  0.9334748833476584  0.532328321177819  1.0000
  H   H29       1.0  0.7448691907907095  0.548312537116994  0.18638485595925813  1.0000
  H   H30       1.0  0.7551308096021485  0.048312537410950186  0.3136151439660473  1.0000
  H   H31       1.0  0.25513080921524145  0.45168746229509354  0.8136151437335118  1.0000
  H   H32       1.0  0.24486919040380228  0.95168746273496  0.6863848557267227  1.0000
  C   C1        1.0  0.6771578678220497  0.47965698362045  0.3896994993354796  1.0000
  C   C2        1.0  0.8228421325798572  0.9796569833264938  0.11030050134288921  1.0000
  C   C3        1.0  0.3228421321929502  0.5203430165254602  0.6103005011103538  1.0000
  C   C4        1.0  0.17715786743514259  0.020343016085593794  0.8896994991029441  1.0000
  C   C5        1.0  0.648148224741051  0.4828752337994661  0.47997827369145457  1.0000
  C   C6        1.0  0.8518517747740258  0.9828752335055099  0.020021725935291494  1.0000
  C   C7        1.0  0.3518517752648998  0.517124766346444  0.5200217260013155  1.0000
  C   C8        1.0  0.14814822523192486  0.017124766640400257  0.9799782737574785  1.0000
  C   C9        1.0  0.6460074597810468  0.39651653377111923  0.5371482562535077  1.0000
  C   C10       1.0  0.8539925406712944  0.8965165342109855  0.9628517438114585  1.0000
  C   C11       1.0  0.353992540224904  0.6034834656409683  0.4628517434392622  1.0000
  C   C12       1.0  0.14600745934370543  0.10348346593492457  0.037148256634374814  1.0000
  C   C13       1.0  0.671617303636786  0.30603506282361337  0.5030347816159211  1.0000
  C   C14       1.0  0.8283826968155552  0.8060350632634797  0.9969652184490453  1.0000
  C   C15       1.0  0.32838269637821393  0.6939649365884741  0.4969652188299123  1.0000
  C   C16       1.0  0.1716173031903955  0.19396493688243036  0.0030347812437247165  1.0000
  C   C17       1.0  0.6998017847011034  0.3007695958317166  0.41124582328242704  1.0000
  C   C18       1.0  0.8001982156917544  0.8007695955377604  0.08875417664287828  1.0000
  C   C19       1.0  0.3001982153048474  0.6992304043141936  0.5887541764103429  1.0000
  C   C20       1.0  0.1998017843141963  0.19923040460814975  0.9112458230498915  1.0000
  C   C21       1.0  0.7536886341088886  0.26025938388560704  0.28179193418399934  1.0000
  C   C22       1.0  0.746311365406188  0.7602593843254735  0.21820806544274668  1.0000
  C   C23       1.0  0.24631136589706207  0.7397406155264805  0.7182080655087706  1.0000
  C   C24       1.0  0.2536886345997626  0.23974061582043674  0.7817919342500232  1.0000
  C   C25       1.0  0.7994364525291212  0.3062812243475293  0.1495243690105533  1.0000
  C   C26       1.0  0.7005635478637368  0.806281224053573  0.3504756309147521  1.0000
  C   C27       1.0  0.2005635474768297  0.6937187757983808  0.8504756306822168  1.0000
  C   C28       1.0  0.2994364521512631  0.19371877609233704  0.6495243695310814  1.0000
  C   C29       1.0  0.8362098916692468  0.3173950717787285  0.06252722675986484  1.0000
  C   C30       1.0  0.6637901087326602  0.8173950714847722  0.43747277391850387  1.0000
  C   C31       1.0  0.16379010834575314  0.6826049283671817  0.9374727736859685  1.0000
  C   C32       1.0  0.3362098912823397  0.18260492792731528  0.5625272265273294  1.0000
  C   C33       1.0  0.8393079566609789  0.4097351891464177  0.020792480960948746  1.0000
  C   C34       1.0  0.660692042854098  0.9097351895862841  0.4792075186657973  1.0000
  C   C35       1.0  0.16069204335402093  0.5902648102656698  0.9792075194848847  1.0000
  C   C36       1.0  0.3393079571518528  0.09026481055962604  0.5207924810269727  1.0000
  C   C37       1.0  0.8066154603690261  0.49392329036575006  0.06473246064851959  1.0000
  C   C38       1.0  0.6933845391550998  0.9939232900717938  0.4352675397312899  1.0000
  C   C39       1.0  0.1933845396459737  0.5060767097801601  0.9352675397973138  1.0000
  C   C40       1.0  0.30661546085990005  0.00607671007411633  0.5647324607145435  1.0000
  C   C41       1.0  0.7709372564105232  0.4860761393475845  0.1500331673609293  1.0000
  C   C42       1.0  0.7290627439823345  0.9860761397874508  0.34996683256437605  1.0000
  C   C43       1.0  0.22906274359542753  0.5139238600645031  0.8499668323318407  1.0000
  C   C44       1.0  0.2709372560236162  0.013923860358459264  0.6500331671283939  1.0000
  C   C45       1.0  0.7386243899147168  0.3625985158557577  0.2751534548216444  1.0000
  C   C46       1.0  0.76137560960036  0.8625985155618014  0.22484654480510163  1.0000
  C   C47       1.0  0.26137561009123395  0.6374014842901524  0.7248465448711254  1.0000
  C   C48       1.0  0.2386243904055907  0.13740148458410867  0.7751534548876682  1.0000
  C   C49       1.0  0.6157012981018236  0.09864545721006157  0.8928154312389256  1.0000
  C   C50       1.0  0.8842987023505174  0.5986454576499279  0.6071845688260407  1.0000
  C   C51       1.0  0.3842987019041271  0.901354542202026  0.10718456845384429  1.0000
  C   C52       1.0  0.11570129766448238  0.4013545424959822  0.39281543161979277  1.0000
  C   C53       1.0  0.6252401399406299  0.12248075411316833  0.7980137365616479  1.0000
  C   C54       1.0  0.8747598605117112  0.6224807538192121  0.7019862635033183  1.0000
  C   C55       1.0  0.3747598600653208  0.8775192460327418  0.20198626313112195  1.0000
  C   C56       1.0  0.12524013950328863  0.37751924632669803  0.2980137369425151  1.0000
  C   C57       1.0  0.5932309547753625  0.21743561201364392  0.7946047507910582  1.0000
  C   C58       1.0  0.9067690456769786  0.7174356117196877  0.7053952492739082  1.0000
  C   C59       1.0  0.4067690452305883  0.7825643881322663  0.20539524890171174  1.0000
  C   C60       1.0  0.0932309543289721  0.28256438769239983  0.29460475041886186  1.0000
  C   C61       1.0  0.5552696362116673  0.27882456723213417  0.8567102647100905  1.0000
  C   C62       1.0  0.9447303633628928  0.7788245676720005  0.6432897350563164  1.0000
  C   C63       1.0  0.4447303638033326  0.721175432913776  0.14328973573574277  1.0000
  C   C64       1.0  0.05526963664305785  0.2211754324739096  0.3567102646364536  1.0000
  C   C65       1.0  0.5431735104464251  0.23946644942475948  0.9501465817583553  1.0000
  C   C66       1.0  0.9568264900059159  0.7394664498646258  0.5498534183066109  1.0000
  C   C67       1.0  0.45682648956857463  0.760533549987328  0.0498534186874781  1.0000
  C   C68       1.0  0.04317351000003478  0.2605335502812843  0.450146581386159  1.0000
  C   C69       1.0  0.5002387196866738  0.27036366240428766  0.03290492003231242  1.0000
  C   C70       1.0  0.999761280706184  0.7703636621103315  0.4670950798929929  1.0000
  C   C71       1.0  0.49976128031927697  0.7296363377416225  0.9670950796604576  1.0000
  C   C72       1.0  0.00023871929976672157  0.22963633803557867  0.532904919799777  1.0000
  C   C73       1.0  0.45147528423791333  0.35103361115663456  0.061275525694504014  1.0000
  C   C74       1.0  0.048524716199427956  0.851033611596501  0.4387244739246289  1.0000
  C   C75       1.0  0.5485247157680374  0.6489663889892756  0.9387244739982659  1.0000
  C   C76       1.0  0.9514752838065228  0.14896638854940916  0.5612755257681411  1.0000
  C   C77       1.0  0.42534778324835  0.35589616551353764  0.14521383891911077  1.0000
  C   C78       1.0  0.07465221718899138  0.855896165953404  0.3547861607000222  1.0000
  C   C79       1.0  0.5746522167576008  0.6441038338985499  0.8547861607736593  1.0000
  C   C80       1.0  0.9253477828169594  0.14410383419250616  0.6452138389927479  1.0000
  C   C81       1.0  0.4401625586407836  0.2825156706778441  0.22085190173850977  1.0000
  C   C82       1.0  0.05983744179655776  0.7825156703838879  0.27914809788062317  1.0000
  C   C83       1.0  0.5598374413651672  0.7174843294680661  0.7791480979542602  1.0000
  C   C84       1.0  0.940162558209393  0.21748432902819967  0.7208519018121468  1.0000
  C   C85       1.0  0.487897864481985  0.197251117753054  0.19779835112711072  1.0000
  C   C86       1.0  0.012102135077575288  0.6972511181929204  0.30220164819346285  1.0000
  C   C87       1.0  0.5121021355239657  0.8027488823928561  0.8022016485656592  1.0000
  C   C88       1.0  0.9878978649283756  0.30274888195298977  0.6977983514993071  1.0000
  C   C89       1.0  0.5162943490139926  0.188229267924882  0.1084011454221654  1.0000
  C   C90       1.0  0.9837056505010843  0.6882292683647483  0.39159885420458057  1.0000
  C   C91       1.0  0.4837056509919581  0.8117707322210281  0.8915988542706046  1.0000
  C   C92       1.0  0.016294349504866554  0.31177073178116177  0.6084011454881895  1.0000
  C   C93       1.0  0.5682591127537407  0.10425689513873151  0.07030441917186207  1.0000
  C   C94       1.0  0.931740887639117  0.6042568948447753  0.4296955807534432  1.0000
  C   C95       1.0  0.4317408872612591  0.8957431050071786  0.9296955812739714  1.0000
  C   C96       1.0  0.06825911236683371  0.39574310456731226  0.5703044189393266  1.0000
  C   C97       1.0  0.581949226581033  0.1404774993968341  0.9691016979209568  1.0000
  C   C98       1.0  0.9180507729935272  0.6404774991028779  0.5308983018454503  1.0000
  C   C99       1.0  0.4180507734249178  0.859522500749076  0.030898301771813207  1.0000
  C   C100      1.0  0.08194922702147261  0.35952250104303224  0.46910169860038314  1.0000
  N   N1        1.0  0.7287632384223007  0.2215879435084694  0.364271121710911  1.0000
  N   N2        1.0  0.7712367610927763  0.721587943214513  0.13572887791583507  1.0000
  N   N3        1.0  0.27123676158365007  0.7784120566374408  0.635728877981859  1.0000
  N   N4        1.0  0.22876323892222364  0.278412056931397  0.8642711225299984  1.0000
  N   N5        1.0  0.7904777430867777  0.2251981635599159  0.20380554828897485  1.0000
  N   N6        1.0  0.7095222573151293  0.7251981632659596  0.29619445238939396  1.0000
  N   N7        1.0  0.20952225692822218  0.7748018365859942  0.7961944521568585  1.0000
  N   N8        1.0  0.29047774269987064  0.27480183614612785  0.7038055480564395  1.0000
  N   N9        1.0  0.7670727481364747  0.3949249114512785  0.1917297595339754  1.0000
  N   N10       1.0  0.732927252256383  0.8949249111573223  0.30827024039132994  1.0000
  N   N11       1.0  0.232927251869476  0.6050750886946316  0.8082702401587946  1.0000
  N   N12       1.0  0.26707274774956774  0.10507508898858788  0.69172975930144  1.0000
  N   N13       1.0  0.7031115613765268  0.39093363640470624  0.3567138485227684  1.0000
  N   N14       1.0  0.7968884381385501  0.8909336361107499  0.14328615110397763  1.0000
  N   N15       1.0  0.2968884377516431  0.6090663637412039  0.6432861508714421  1.0000
  N   N16       1.0  0.20311156187644974  0.10906636403516012  0.8567138493418559  1.0000
  N   N17       1.0  0.6502567116268033  0.062482580574180685  0.7177748390253341  1.0000
  N   N18       1.0  0.8497432888255377  0.5624825802802245  0.7822251610396321  1.0000
  N   N19       1.0  0.3497432883791474  0.9375174195717294  0.2822251606674358  1.0000
  N   N20       1.0  0.15025671118946207  0.43751741986568565  0.21777483940620124  1.0000
  N   N21       1.0  0.52494656020442  0.37946785866342536  0.821270400260845  1.0000
  N   N22       1.0  0.9750534393701403  0.8794678583694691  0.678729599505562  1.0000
  N   N23       1.0  0.4750534398105799  0.6205321414824848  0.1787296001849884  1.0000
  N   N24       1.0  0.024946560635810477  0.12053214104261842  0.321270400187208  1.0000
  N   N25       1.0  0.4118274638928038  0.292712537061207  0.31745257376144775  1.0000
  N   N26       1.0  0.08817253655358663  0.7927125367672507  0.18254742661074863  1.0000
  N   N27       1.0  0.5881725361221961  0.7072874630847032  0.6825474266843857  1.0000
  N   N28       1.0  0.9118274634523641  0.20728746264483677  0.8174525730820212  1.0000
  O   O1        1.0  0.6723487694564235  0.9750757567399899  0.7399003248591656  1.0000
  O   O2        1.0  0.8276512309959175  0.47507575630012366  0.7600996752058008  1.0000
  O   O3        1.0  0.3276512305495272  0.024924243405920105  0.26009967483360447  1.0000
  O   O4        1.0  0.17234876901908228  0.5249242438457865  0.23990032524003257  1.0000
  O   O5        1.0  0.6449182133169161  0.10474800591163348  0.6337628931634535  1.0000
  O   O6        1.0  0.855081787135425  0.6047480056176773  0.8662371069015129  1.0000
  O   O7        1.0  0.3550817866980837  0.8952519942342767  0.36623710728238  1.0000
  O   O8        1.0  0.14491821287052573  0.3952519945282329  0.13376289279125703  1.0000
  O   O9        1.0  0.5487102988471053  0.40872396986687903  0.7438063110675589  1.0000
  O   O10       1.0  0.951289700727455  0.9087239695729228  0.7561936886988482  1.0000
  O   O11       1.0  0.4512897011678946  0.5912760302790312  0.2561936893782746  1.0000
  O   O12       1.0  0.04871029927849586  0.09127603057298736  0.24380631099392178  1.0000
  O   O13       1.0  0.47648246461039395  0.4295057759080462  0.8700826652265778  1.0000
  O   O14       1.0  0.023517535017698876  0.9295057763479125  0.6299173349867202  1.0000
  O   O15       1.0  0.5235175353955569  0.5704942235040413  0.1299173344661921  1.0000
  O   O16       1.0  0.976482464997301  0.07049422379799755  0.3700826654591132  1.0000
  O   O17       1.0  0.38130347514993895  0.3751508140823469  0.33716115966305266  1.0000
  O   O18       1.0  0.1186965244186705  0.8751508137883907  0.16283884041058436  1.0000
  O   O19       1.0  0.6186965248650609  0.6248491860635632  0.6628388407827807  1.0000
  O   O20       1.0  0.8813034755872804  0.12484918635751942  0.8371611592821857  1.0000
  O   O21       1.0  0.42135018449801903  0.2190459710258485  0.37444866461602716  1.0000
  O   O22       1.0  0.07864981507059038  0.7190459714657149  0.12555133545760985  1.0000
  O   O23       1.0  0.5786498155169808  0.7809540291200616  0.6255513358298063  1.0000
  O   O24       1.0  0.9213501849353605  0.28095402868019526  0.8744486642351602  1.0000
  O   O25       1.0  0.5931793629743315  0.022745138125363534  0.11123374231019624  1.0000
  O   O26       1.0  0.9068206374185264  0.5227451378314073  0.3887662576151091  1.0000
  O   O27       1.0  0.4068206370316192  0.9772548620205466  0.8887662573825736  1.0000
  O   O28       1.0  0.09317936258742446  0.47725486158068026  0.6112337420776609  1.0000
