data_image0
_chemical_formula_structural       H60C72N12O20
_chemical_formula_sum              "H60 C72 N12 O20"
_cell_length_a       19.361790543109926
_cell_length_b       11.88921231194542
_cell_length_c       6.909459299234981
_cell_angle_alpha    90.0
_cell_angle_beta     92.1051908678187
_cell_angle_gamma    90.0

_space_group_name_H-M_alt    "P 1"
_space_group_IT_number       1

loop_
  _space_group_symop_operation_xyz
  'x, y, z'

loop_
  _atom_site_type_symbol
  _atom_site_label
  _atom_site_symmetry_multiplicity
  _atom_site_fract_x
  _atom_site_fract_y
  _atom_site_fract_z
  _atom_site_occupancy
  H   H1        1.0  0.4344896926183815  0.7476943372496156  0.5682905398937328  1.0000
  H   H2        1.0  0.5655103071542761  0.24769433775197938  0.9317094605962503  1.0000
  H   H3        1.0  0.5655103070673498  0.2523056625867555  0.4317094605350324  1.0000
  H   H4        1.0  0.43448969304828483  0.7523056629254904  0.06829053988402417  1.0000
  H   H5        1.0  0.5641160357755458  0.9243515408466745  0.19361812781244653  1.0000
  H   H6        1.0  0.43588396382325933  0.42435154050793955  0.3063818725551007  1.0000
  H   H7        1.0  0.4358839639101856  0.07564845983079531  0.8063818726163187  1.0000
  H   H8        1.0  0.5641160358624722  0.5756484593284316  0.6936181278736644  1.0000
  H   H9        1.0  0.4349230555928308  0.03633638029711579  0.20852339370552783  1.0000
  H   H10       1.0  0.5650769440059744  0.5363363806358507  0.2914766066620194  1.0000
  H   H11       1.0  0.5650769440929005  0.9636636195392553  0.7914766067232374  1.0000
  H   H12       1.0  0.43492305567975703  0.4636636192005204  0.7085233937667457  1.0000
  H   H13       1.0  0.3357415912340224  0.013447333246742172  0.43128429048421163  1.0000
  H   H14       1.0  0.6642584088816125  0.513447333585477  0.06871570993484495  1.0000
  H   H15       1.0  0.6642584089685387  0.9865526665896289  0.5687157099960628  1.0000
  H   H16       1.0  0.33574159080411903  0.48655266625089405  0.9312842904939201  1.0000
  H   H17       1.0  0.3380607843858329  0.9036229531544193  0.6024186585180289  1.0000
  H   H18       1.0  0.6619392153868248  0.4036229528156844  0.8975813419719543  1.0000
  H   H19       1.0  0.6619392152998985  0.09637704668195182  0.3975813419107363  1.0000
  H   H20       1.0  0.3380607842989067  0.5963770470206867  0.1024186584568109  1.0000
  H   H21       1.0  0.1888198522468406  0.7265029863518896  0.18637103894516757  1.0000
  H   H22       1.0  0.8111801478687941  0.2265029860131547  0.31362896147388897  1.0000
  H   H23       1.0  0.8111801474388908  0.2734970134844815  0.8136289614835976  1.0000
  H   H24       1.0  0.18881985233376689  0.7734970138232165  0.6863710390063855  1.0000
  H   H25       1.0  0.06330931234745305  0.752655243695936  0.23826636897764084  1.0000
  H   H26       1.0  0.936690687250748  0.2526552441982996  0.2617336299425539  1.0000
  H   H27       1.0  0.9366906873376744  0.24734475614043525  0.7617336300037719  1.0000
  H   H28       1.0  0.06330931243437928  0.7473447556380715  0.7382663690388588  1.0000
  H   H29       1.0  0.02346787869940447  0.9140950607031175  0.4289299102801721  1.0000
  H   H30       1.0  0.9765321208987965  0.4140950603643827  0.07107008864002262  1.0000
  H   H31       1.0  0.976532120985723  0.08590493913325356  0.5710700887012405  1.0000
  H   H32       1.0  0.023467878786330717  0.5859049394719884  0.92892991034139  1.0000
  H   H33       1.0  0.10904423495910984  0.050824853164820334  0.5733456223260689  1.0000
  H   H34       1.0  0.8909557653303773  0.5508248535035551  0.9266543782154234  1.0000
  H   H35       1.0  0.8909557652434511  0.9491751466715508  0.42665437815420554  1.0000
  H   H36       1.0  0.10904423487218357  0.44917514717391455  0.07334562226485097  1.0000
  H   H37       1.0  0.23343965269826156  0.024004042699553918  0.5285264383429761  1.0000
  H   H38       1.0  0.766560347074396  0.5240040430382887  0.971473562147007  1.0000
  H   H39       1.0  0.7665603469874698  0.9759959571368172  0.47147356208578906  1.0000
  H   H40       1.0  0.233439653128165  0.47599595763918096  0.02852643833326752  1.0000
  H   H41       1.0  0.5622719118370015  0.7522363437831977  0.41495146227482016  1.0000
  H   H42       1.0  0.43772808776180366  0.2522363434444628  0.085048538092727  1.0000
  H   H43       1.0  0.4377280878487299  0.24776365605317344  0.585048538153945  1.0000
  H   H44       1.0  0.5622719119239278  0.7477636563919083  0.9149514623360382  1.0000
  H   H45       1.0  0.8067615594696852  0.7874703844419817  0.34850353509764903  1.0000
  H   H46       1.0  0.19323844064534546  0.28747038410324677  0.15149646387405505  1.0000
  H   H47       1.0  0.1932384407322717  0.2125296153943895  0.6514964639352729  1.0000
  H   H48       1.0  0.8067615590397819  0.7125296157331243  0.8485035351073575  1.0000
  H   H49       1.0  0.9018293939662706  0.4750807178642913  0.5307236744044521  1.0000
  H   H50       1.0  0.09817060632321668  0.9750807182030261  0.9692763261370404  1.0000
  H   H51       1.0  0.09817060623629044  0.5249192819720798  0.4692763260758224  1.0000
  H   H52       1.0  0.9018293938793442  0.024919281633344937  0.03072367434323416  1.0000
  H   H53       1.0  0.7854438250045617  0.39979932944962465  0.6113042797982611  1.0000
  H   H54       1.0  0.21455617476809594  0.8997993297883595  0.8886957206917221  1.0000
  H   H55       1.0  0.21455617468116972  0.6002006703867464  0.38869572063050417  1.0000
  H   H56       1.0  0.7854438249176355  0.10020067088911021  0.11130427973704303  1.0000
  H   H57       1.0  0.6809473864739305  0.5204535672883025  0.5597846731154733  1.0000
  H   H58       1.0  0.3190526132987271  0.020453566949567684  0.9402153273745096  1.0000
  H   H59       1.0  0.31905261321180084  0.47954643338916714  0.4402153273132917  1.0000
  H   H60       1.0  0.6809473869038339  0.9795464328868034  0.05978467310576482  1.0000
  C   C1        1.0  0.45349344405580577  0.810359091688515  0.46923805519758643  1.0000
  C   C2        1.0  0.546506556059829  0.31035909134978024  0.030761945221470136  1.0000
  C   C3        1.0  0.5465065561467551  0.18964090898895464  0.530761945282688  1.0000
  C   C4        1.0  0.453493444142732  0.6896409084865909  0.9692380552588044  1.0000
  C   C5        1.0  0.5180437049572346  0.906831828477612  0.27274394950381925  1.0000
  C   C6        1.0  0.4819562946415706  0.406831828138877  0.22725605086372797  1.0000
  C   C7        1.0  0.48195629472849677  0.09316817219985778  0.7272560509249458  1.0000
  C   C8        1.0  0.5180437050441609  0.593168171697494  0.7727439495650372  1.0000
  C   C9        1.0  0.455430874795477  0.9606978915267633  0.27802461094474934  1.0000
  C   C10       1.0  0.5445691253195536  0.46069789118802856  0.22197538802695474  1.0000
  C   C11       1.0  0.5445691254064798  0.03930210830960768  0.7219753880881726  1.0000
  C   C12       1.0  0.45543087488240336  0.5393021086483425  0.7780246110059673  1.0000
  C   C13       1.0  0.3451625356214109  0.9228576512992437  0.44910308939455906  1.0000
  C   C14       1.0  0.6548374644936198  0.42285765096050887  0.050896909577145065  1.0000
  C   C15       1.0  0.6548374645805461  0.07714234853712743  0.5508969096383629  1.0000
  C   C16       1.0  0.3451625357083372  0.5771423488758622  0.9491030894557769  1.0000
  C   C17       1.0  0.2939925916837959  0.8512300861034924  0.328744450377861  1.0000
  C   C18       1.0  0.7060074082334963  0.3512300866058561  0.1712488837933673  1.0000
  C   C19       1.0  0.7060074085187651  0.14876991373287876  0.6712555501024134  1.0000
  C   C20       1.0  0.29399259145223516  0.6487699140716136  0.8287511166353978  1.0000
  C   C21       1.0  0.21985762175137047  0.8707856692573402  0.35827620747895916  1.0000
  C   C22       1.0  0.7801423783636602  0.37078566891860526  0.14172379149274492  1.0000
  C   C23       1.0  0.7801423779337568  0.12921433057903092  0.6417237915024534  1.0000
  C   C24       1.0  0.21985762183829674  0.6292143309177658  0.8582762075401771  1.0000
  C   C25       1.0  0.1710278120845199  0.7958883315165278  0.27437582584809017  1.0000
  C   C26       1.0  0.8289721875142853  0.295888331177793  0.22562417451945707  1.0000
  C   C27       1.0  0.8289721876012115  0.20411166831984323  0.725624174580675  1.0000
  C   C28       1.0  0.17102781217144614  0.704111668658578  0.774375825909308  1.0000
  C   C29       1.0  0.10094991304323568  0.8113327289401915  0.30110412690754385  1.0000
  C   C30       1.0  0.8990500865555694  0.31133272860145667  0.19889587346000334  1.0000
  C   C31       1.0  0.8990500866424957  0.18866727089617957  0.6988958735212213  1.0000
  C   C32       1.0  0.10094991313016193  0.6886672712349144  0.8011041269687618  1.0000
  C   C33       1.0  0.07856666205587456  0.9027861660116744  0.4096209265594568  1.0000
  C   C34       1.0  0.9214333380597602  0.40278616567293957  0.09037907385959977  1.0000
  C   C35       1.0  0.9214333381466866  0.09721383466579532  0.5903790739208177  1.0000
  C   C36       1.0  0.07856666214280081  0.5972138341634315  0.9096209266206746  1.0000
  C   C37       1.0  0.12639716445661583  0.9786684916299623  0.49075927001494324  1.0000
  C   C38       1.0  0.8736028356590189  0.4786684921323261  0.009240730404113296  1.0000
  C   C39       1.0  0.8736028352291156  0.02133150820640878  0.5092407304138219  1.0000
  C   C40       1.0  0.12639716454293798  0.5213315085451437  0.9907592686288087  1.0000
  C   C41       1.0  0.19693112890948697  0.9629317401033689  0.4661540377998428  1.0000
  C   C42       1.0  0.8030688712055437  0.46293173976463403  0.033845961171861276  1.0000
  C   C43       1.0  0.8030688707756403  0.03706825973300217  0.5338459611815699  1.0000
  C   C44       1.0  0.1969311289964132  0.537068260071737  0.9661540378610607  1.0000
  C   C45       1.0  0.6739296891658261  0.7335053535243855  0.42789558595104393  1.0000
  C   C46       1.0  0.32607031043297907  0.23350535402674916  0.0721044144165033  1.0000
  C   C47       1.0  0.3260703105199053  0.26649464631198566  0.5721044144777212  1.0000
  C   C48       1.0  0.6739296892527523  0.7664946466507205  0.927895586012262  1.0000
  C   C49       1.0  0.7371550095376648  0.6607695138984802  0.45203405786458273  1.0000
  C   C50       1.0  0.2628449905779701  0.1607695135597453  0.0479659425544738  1.0000
  C   C51       1.0  0.26284499066489636  0.33923048677898954  0.5479659426156916  1.0000
  C   C52       1.0  0.7371550096245909  0.8392304862766258  0.9520340579258006  1.0000
  C   C53       1.0  0.8017967827555761  0.7028944828921618  0.406189243756301  1.0000
  C   C54       1.0  0.19820321736005872  0.20289448255342707  0.09381075666275555  1.0000
  C   C55       1.0  0.19820321693015533  0.29710551694420917  0.5938107566724641  1.0000
  C   C56       1.0  0.8017967828425022  0.797105517282944  0.9061892438175189  1.0000
  C   C57       1.0  0.85948878611098  0.6338132865563209  0.4345817769442005  1.0000
  C   C58       1.0  0.14051121400465474  0.133813286217586  0.0654182234748561  1.0000
  C   C59       1.0  0.14051121409158102  0.36618671328005026  0.565418223536074  1.0000
  C   C60       1.0  0.8594887861979065  0.8661867136187851  0.9345817770054184  1.0000
  C   C61       1.0  0.8552828494078298  0.5254690795388566  0.5107261749607275  1.0000
  C   C62       1.0  0.14471715036482768  0.025469080041220324  0.9892738255292555  1.0000
  C   C63       1.0  0.14471715027790144  0.47453092029751454  0.4892738254680376  1.0000
  C   C64       1.0  0.8552828493209038  0.9745309206362495  0.01072617489950962  1.0000
  C   C65       1.0  0.7904293469124064  0.48473235390116376  0.5554201613379067  1.0000
  C   C66       1.0  0.2095706528602512  0.9847323542398987  0.9445798391520764  1.0000
  C   C67       1.0  0.20957065329015456  0.5152676459352074  0.4445798391423678  1.0000
  C   C68       1.0  0.7904293468254803  0.015267645596472491  0.05542016127668879  1.0000
  C   C69       1.0  0.7319020474158029  0.5513462194138747  0.5251088044408089  1.0000
  C   C70       1.0  0.26809795287308036  0.0513462190751399  0.9748911946533312  1.0000
  C   C71       1.0  0.2680979527861541  0.44865378126359495  0.4748911945921132  1.0000
  C   C72       1.0  0.7319020473288766  0.9486537807612312  0.025108804379590923  1.0000
  N   N1        1.0  0.41609414275595935  0.8992577724647065  0.4037483650276639  1.0000
  N   N2        1.0  0.5839058573596754  0.3992577721259716  0.0962516353913926  1.0000
  N   N3        1.0  0.5839058574466016  0.10074222821276325  0.5962516354526105  1.0000
  N   N4        1.0  0.41609414284288565  0.6007422277103994  0.9037483650888818  1.0000
  N   N5        1.0  0.5156116865618434  0.8142314096177478  0.39217298741697615  1.0000
  N   N6        1.0  0.48438831355379147  0.3142314101201115  0.10782701300208043  1.0000
  N   N7        1.0  0.4843883131238881  0.18576859021862333  0.607827013011789  1.0000
  N   N8        1.0  0.5156116866487697  0.6857685897162595  0.8921729874781941  1.0000
  N   N9        1.0  0.9269885459593806  0.6758938590007484  0.37951836821655066  1.0000
  N   N10       1.0  0.0730114541562542  0.17589385866201365  0.12048163220250589  1.0000
  N   N11       1.0  0.07301145424318045  0.3241061408356226  0.6204816322637238  1.0000
  N   N12       1.0  0.9269885460463068  0.8241061411743574  0.8795183682777685  1.0000
  O   O1        1.0  0.3150460231810381  0.7795737696338104  0.21570119415453093  1.0000
  O   O2        1.0  0.6849539769339926  0.2795737701361741  0.2842988048171732  1.0000
  O   O3        1.0  0.6849539770209189  0.22042623020256072  0.7842988048783911  1.0000
  O   O4        1.0  0.31504602326796427  0.720426229700197  0.7157011942157487  1.0000
  O   O5        1.0  0.6154048024633582  0.6800699960481217  0.4299431350925613  1.0000
  O   O6        1.0  0.38459519713484286  0.18006999570938678  0.07005686382763346  1.0000
  O   O7        1.0  0.3845951972217691  0.31993000378824943  0.5700568638888514  1.0000
  O   O8        1.0  0.6154048025502844  0.8199300041269844  0.9299431351537792  1.0000
  O   O9        1.0  0.6803729802837392  0.8375512699016316  0.4090889838762502  1.0000
  O   O10       1.0  0.31962701931506593  0.33755127040399546  0.09091101649129703  1.0000
  O   O11       1.0  0.3196270194019922  0.1624487299347394  0.590911016552515  1.0000
  O   O12       1.0  0.6803729803706654  0.6624487302734743  0.9090889839374681  1.0000
  O   O13       1.0  0.9302633483143689  0.7739787295037619  0.31639843069541473  1.0000
  O   O14       1.0  0.06973665180066185  0.27397873000612577  0.18360156827628935  1.0000
  O   O15       1.0  0.0697366518875881  0.2260212703326091  0.6836015683375073  1.0000
  O   O16       1.0  0.9302633478844655  0.7260212698302454  0.8163984307051233  1.0000
  O   O17       1.0  0.9773261065463452  0.6117303231848779  0.3955807605211705  1.0000
  O   O18       1.0  0.02267389305246008  0.11173032284614301  0.10441923984637672  1.0000
  O   O19       1.0  0.022673893139386326  0.38826967749259184  0.6044192399075946  1.0000
  O   O20       1.0  0.9773261066332712  0.8882696769902281  0.8955807605823883  1.0000
