data_image0
_chemical_formula_structural       H84C84Br6I6
_chemical_formula_sum              "H84 C84 Br6 I6"
_cell_length_a       14.588929831849043
_cell_length_b       12.765663913865708
_cell_length_c       12.604599683513287
_cell_angle_alpha    117.95009013055108
_cell_angle_beta     92.08360441330748
_cell_angle_gamma    95.06028928370213

_space_group_name_H-M_alt    "P 1"
_space_group_IT_number       1

loop_
  _space_group_symop_operation_xyz
  'x, y, z'

loop_
  _atom_site_type_symbol
  _atom_site_label
  _atom_site_symmetry_multiplicity
  _atom_site_fract_x
  _atom_site_fract_y
  _atom_site_fract_z
  _atom_site_occupancy
  H   H1        1.0  0.9111036797120642  0.17389176855780006  0.36059178089543215  1.0000
  H   H2        1.0  0.08889632022058168  0.8261082316496513  0.6394082190125464  1.0000
  H   H3        1.0  0.9161385446902178  0.35238643248840873  0.5628651514129146  1.0000
  H   H4        1.0  0.08386145518698047  0.6476135669328789  0.4371348484955535  1.0000
  H   H5        1.0  0.2008389793010951  0.45225224538484154  0.5390593128043635  1.0000
  H   H6        1.0  0.7991610206896305  0.5477477552464266  0.4609406880052501  1.0000
  H   H7        1.0  0.19684629482072977  0.2773823295123802  0.3357376833944475  1.0000
  H   H8        1.0  0.8031537051119161  0.7226176706950711  0.6642623165135311  1.0000
  H   H9        1.0  0.1272006828375549  0.5777746353492518  0.7140418645582887  1.0000
  H   H10       1.0  0.8727993177812403  0.4222253648660056  0.28595813535357106  1.0000
  H   H11       1.0  0.04915421083197707  0.4934294400566985  0.7568413829173227  1.0000
  H   H12       1.0  0.9508457890452212  0.5065705593645892  0.24315861699114552  1.0000
  H   H13       1.0  0.006353651560071563  0.5768427419493372  0.6911705626909925  1.0000
  H   H14       1.0  0.9936463483725743  0.4231572582581143  0.3088294372169861  1.0000
  H   H15       1.0  0.2252740675389789  0.9138511954993932  0.1374211614440972  1.0000
  H   H16       1.0  0.7747259323936669  0.08614880470805819  0.8625788384638814  1.0000
  H   H17       1.0  0.3030398520652209  0.8239829863177562  0.24469422524194193  1.0000
  H   H18       1.0  0.6969601478674249  0.17601701388969504  0.7553057746660367  1.0000
  H   H19       1.0  0.10586821754647113  0.9383867224038842  0.5120426017367129  1.0000
  H   H20       1.0  0.8941317823861749  0.06161327780356706  0.4879573981712657  1.0000
  H   H21       1.0  0.025684981282074602  0.027785597780511272  0.403203514523972  1.0000
  H   H22       1.0  0.9743150186505711  0.9722144024269399  0.5967964853840064  1.0000
  H   H23       1.0  0.31459346398458166  0.7725551352269171  0.40434030636569396  1.0000
  H   H24       1.0  0.6854065359480641  0.22744486498053415  0.5956596935422845  1.0000
  H   H25       1.0  0.2107536577442014  0.7588667177439841  0.4678802995163654  1.0000
  H   H26       1.0  0.7892463421884445  0.24113328246346732  0.5321197003916132  1.0000
  H   H27       1.0  0.2879741158996983  0.8907993959072099  0.5435996044327568  1.0000
  H   H28       1.0  0.7120258839774998  0.10920060351407782  0.4564003954757115  1.0000
  H   H29       1.0  0.8530649714493547  0.8893834599001295  0.01699311692308535  1.0000
  H   H30       1.0  0.1469350284832911  0.1106165403073219  0.9830068829848931  1.0000
  H   H31       1.0  0.9311953209947442  0.8019294080162461  0.12768467252950638  1.0000
  H   H32       1.0  0.06880467888245395  0.19807059140504152  0.8723153273789618  1.0000
  H   H33       1.0  0.6866075259790152  0.8032896054313465  0.30996224705738906  1.0000
  H   H34       1.0  0.3133924739536307  0.19671039477610489  0.6900377528505894  1.0000
  H   H35       1.0  0.6069235769285819  0.8916196747944684  0.1989264471940852  1.0000
  H   H36       1.0  0.3930764236902134  0.10838032542078908  0.8010735527177745  1.0000
  H   H37       1.0  0.9353374611118548  0.7438407929957334  0.2860828563183648  1.0000
  H   H38       1.0  0.06466253882079098  0.256159207211718  0.7139171435896138  1.0000
  H   H39       1.0  0.8336477673574493  0.6407823889020784  0.24467150844519367  1.0000
  H   H40       1.0  0.16635223257519655  0.359217611305373  0.7553284914627849  1.0000
  H   H41       1.0  0.8449762935199229  0.7738698892317649  0.3842760277833199  1.0000
  H   H42       1.0  0.15502370709887237  0.2261301109834923  0.6157239721285398  1.0000
  H   H43       1.0  0.5116947593724894  0.1053296967994554  0.17800587133741824  1.0000
  H   H44       1.0  0.4883052405601564  0.8946703034079959  0.8219941285705604  1.0000
  H   H45       1.0  0.5077452783909006  0.2788517157569288  0.3788337527751586  1.0000
  H   H46       1.0  0.4922547215417453  0.7211482844505225  0.62116624713282  1.0000
  H   H47       1.0  0.8039831420163881  0.35379615231017153  0.4056193884917986  1.0000
  H   H48       1.0  0.19601685786081005  0.6462038471111161  0.5943806114166695  1.0000
  H   H49       1.0  0.8079442544249784  0.18627629282482852  0.1993611282429107  1.0000
  H   H50       1.0  0.19205574550766735  0.8137237073826227  0.8006388716650679  1.0000
  H   H51       1.0  0.7222003512299691  0.4692907881700723  0.5789190443525946  1.0000
  H   H52       1.0  0.2777996487026768  0.5307092120373791  0.4210809555553841  1.0000
  H   H53       1.0  0.6172419731925346  0.39560325587808565  0.5909109103456281  1.0000
  H   H54       1.0  0.38275802674011133  0.6043967443293659  0.4090890895623505  1.0000
  H   H55       1.0  0.6143893877870399  0.4981281451592998  0.5354128907694813  1.0000
  H   H56       1.0  0.38561061220368564  0.5018718554719684  0.4645871100401325  1.0000
  H   H57       1.0  0.4047276815519736  0.44164960421541316  0.9721359576757082  1.0000
  H   H58       1.0  0.5952723183806723  0.5583503959920381  0.02786404223227034  1.0000
  H   H59       1.0  0.27406256259714684  0.3950343135491641  0.0679601190839541  1.0000
  H   H60       1.0  0.7259374373354991  0.6049656866582872  0.9320398808240244  1.0000
  H   H61       1.0  0.12266407430712159  0.6452483924018765  0.014647145938936722  1.0000
  H   H62       1.0  0.8773359262562259  0.3547516070272172  0.9853528539734127  1.0000
  H   H63       1.0  0.2550172815730875  0.6974339728387045  0.9256783161507338  1.0000
  H   H64       1.0  0.7449827183041108  0.30256602658258336  0.07432168375773439  1.0000
  H   H65       1.0  0.0632222972982525  0.5596469732186803  0.13721293438119933  1.0000
  H   H66       1.0  0.9367777026343933  0.44035302698877116  0.8627870655267793  1.0000
  H   H67       1.0  0.06963745753391437  0.4036613606016496  0.05002184786595337  1.0000
  H   H68       1.0  0.9303625423432839  0.5963386388196381  0.9499781520425148  1.0000
  H   H69       1.0  0.13556419454063293  0.48434381920642283  0.18954618957831704  1.0000
  H   H70       1.0  0.8644358053920128  0.5156561810010286  0.8104538103296616  1.0000
  H   H71       1.0  0.5498504061138023  0.39129657799426953  0.8255640015669098  1.0000
  H   H72       1.0  0.4501495938188435  0.6087034222131817  0.1744359983410688  1.0000
  H   H73       1.0  0.5314040585901012  0.1847077438264398  0.6585844116776548  1.0000
  H   H74       1.0  0.4685959419732466  0.8152922556026538  0.34141558823469453  1.0000
  H   H75       1.0  0.3386891851850933  0.2800159037080605  0.4600833843868878  1.0000
  H   H76       1.0  0.6613108147475525  0.7199840964993909  0.5399166155210908  1.0000
  H   H77       1.0  0.3518510515280009  0.48619561755896284  0.6319583926646338  1.0000
  H   H78       1.0  0.648148948404645  0.5138043826484884  0.3680416072433447  1.0000
  H   H79       1.0  0.3847568724822001  0.08454023893463691  0.3647109823397649  1.0000
  H   H80       1.0  0.6152431274504457  0.9154597612728144  0.6352890175682135  1.0000
  H   H81       1.0  0.49509663976503543  0.06710705211904561  0.41387349784405597  1.0000
  H   H82       1.0  0.5049033601121629  0.9328929473022421  0.5861265020644122  1.0000
  H   H83       1.0  0.3947244268483909  0.027796564254521164  0.46856646651115397  1.0000
  H   H84       1.0  0.6052755737704043  0.9722034359607361  0.5314335334007058  1.0000
  C   C1        1.0  0.054095414435209946  0.21549056651799564  0.3387175093872547  1.0000
  C   C2        1.0  0.9459045854974358  0.7845094336894557  0.6612824905207239  1.0000
  C   C3        1.0  0.9744706843546365  0.23538859335663107  0.40016314300358974  1.0000
  C   C4        1.0  0.025529316264158757  0.7646114068586263  0.5998368569082699  1.0000
  C   C5        1.0  0.9775701836851047  0.335746617428281  0.5130612097290199  1.0000
  C   C6        1.0  0.022429816192093575  0.6642533819930067  0.4869387901794482  1.0000
  C   C7        1.0  0.05870152127569998  0.4152737097647515  0.5651912371931851  1.0000
  C   C8        1.0  0.9412984793430953  0.5847262904505058  0.4348087627186747  1.0000
  C   C9        1.0  0.13690303401353862  0.3922417600330459  0.49995483102017824  1.0000
  C   C10       1.0  0.8630969658636596  0.6077582393882418  0.5000451688882899  1.0000
  C   C11       1.0  0.13551698575361235  0.2931738762967803  0.3860874479931378  1.0000
  C   C12       1.0  0.8644830141790335  0.706826123910671  0.6139125519148407  1.0000
  C   C13       1.0  0.06078037375252842  0.5212697676629251  0.6876048664217487  1.0000
  C   C14       1.0  0.9392196261801175  0.47873023254452635  0.31239513348622994  1.0000
  C   C15       1.0  0.12093619627255586  0.9757098145873537  0.2643554806987933  1.0000
  C   C16       1.0  0.8790638036046423  0.024290184833933904  0.735644519209675  1.0000
  C   C17       1.0  0.19830064611539971  0.9189985799109913  0.21898483214437667  1.0000
  C   C18       1.0  0.8016993537617986  0.08100141951029646  0.7810151677640916  1.0000
  C   C19       1.0  0.24190024076687758  0.867512756119885  0.2803869614233498  1.0000
  C   C20       1.0  0.7580997591657682  0.13248724408756632  0.7196130384846288  1.0000
  C   C21       1.0  0.21002499642822609  0.8738758716215659  0.3862938994756822  1.0000
  C   C22       1.0  0.7899750041905692  0.1261241285936914  0.6137061004361775  1.0000
  C   C23       1.0  0.13162710071007794  0.9319593585851272  0.42935189329596435  1.0000
  C   C24       1.0  0.8683728991671202  0.06804064083616052  0.5706481066125038  1.0000
  C   C25       1.0  0.08619079722085098  0.982456135766636  0.3686507757308119  1.0000
  C   C26       1.0  0.9138092027117948  0.017543864440815328  0.6313492241771667  1.0000
  C   C27       1.0  0.2587121182220518  0.8213104724451664  0.45348710933973146  1.0000
  C   C28       1.0  0.7412878817686737  0.17868952818610184  0.5465128914698821  1.0000
  C   C29       1.0  0.7262603354065477  0.8966903332268461  0.10335452340531591  1.0000
  C   C30       1.0  0.2737396652122476  0.10330966698841124  0.8966454765065439  1.0000
  C   C31       1.0  0.8166845353881188  0.8718653842425667  0.08209588525822843  1.0000
  C   C32       1.0  0.18331546448907943  0.12813461517872096  0.9179041146502397  1.0000
  C   C33       1.0  0.8604663977889897  0.8221645789982914  0.14521961655650958  1.0000
  C   C34       1.0  0.1395336022017357  0.1778354216329766  0.854780384253104  1.0000
  C   C35       1.0  0.8148849155265245  0.7968213502036577  0.2277811888065186  1.0000
  C   C36       1.0  0.18511508435067361  0.20317864921762982  0.7722188111019495  1.0000
  C   C37       1.0  0.7237590575717961  0.8237798183907473  0.24716150961365707  1.0000
  C   C38       1.0  0.27624094236084956  0.17622018181670415  0.7528384902943215  1.0000
  C   C39       1.0  0.6784895992568885  0.8734844370213196  0.18534637072921223  1.0000
  C   C40       1.0  0.3215104006757574  0.12651556318613186  0.8146536291787664  1.0000
  C   C41       1.0  0.8600926686675162  0.7364778019854599  0.2895605326585077  1.0000
  C   C42       1.0  0.1399073312651296  0.2635221982219915  0.7104394672494708  1.0000
  C   C43       1.0  0.6599627016786991  0.13564389667725418  0.17870296027356444  1.0000
  C   C44       1.0  0.34003729825394663  0.8643561035301972  0.8212970396344141  1.0000
  C   C45       1.0  0.57551693937766  0.16090579821987966  0.2274661493512479  1.0000
  C   C46       1.0  0.42448306049953816  0.839094201201408  0.7725338505572202  1.0000
  C   C47       1.0  0.5740944927664037  0.25790334944262194  0.341784327481875  1.0000
  C   C48       1.0  0.4259055071662421  0.7420966507648294  0.6582156724261036  1.0000
  C   C49       1.0  0.65590441613289  0.32780214033573585  0.40881384507105534  1.0000
  C   C50       1.0  0.3440955837997558  0.6721978598717153  0.5911861548369232  1.0000
  C   C51       1.0  0.7393650044195103  0.3008156724226612  0.3555000512893431  1.0000
  C   C52       1.0  0.2606349954576879  0.6991843269986264  0.6444999486191252  1.0000
  C   C53       1.0  0.7424514318522796  0.20542763762184757  0.24004249502941838  1.0000
  C   C54       1.0  0.25754856876651555  0.7945723625934098  0.7599575048824413  1.0000
  C   C55       1.0  0.6530015283971422  0.42750712225709697  0.5344060964532786  1.0000
  C   C56       1.0  0.3469984722216531  0.5724928779581603  0.46559390345858104  1.0000
  C   C57       1.0  0.3377245317017729  0.5733448804216141  0.9452403741986828  1.0000
  C   C58       1.0  0.6622754682308728  0.4266551197858372  0.054759625709295844  1.0000
  C   C59       1.0  0.34328656825334797  0.4872860830576656  0.9828441292183898  1.0000
  C   C60       1.0  0.6567134316792977  0.5127139171497858  0.01715587068958869  1.0000
  C   C61       1.0  0.26871449068882075  0.4602169173738164  0.03557275190264628  1.0000
  C   C62       1.0  0.7312855093019047  0.5397830832574517  0.9644272489069673  1.0000
  C   C63       1.0  0.18876073410880534  0.517326907611852  0.0492919005778766  1.0000
  C   C64       1.0  0.8112392658238404  0.4826730925955994  0.9507080993301019  1.0000
  C   C65       1.0  0.1843483025344063  0.6001451267536974  0.006095907279544579  1.0000
  C   C66       1.0  0.8156516973982394  0.3998548734537541  0.9939040926284339  1.0000
  C   C67       1.0  0.25880790239557633  0.6296608802142932  0.9545879146296113  1.0000
  C   C68       1.0  0.7411920975951493  0.370339120416975  0.045412086180002295  1.0000
  C   C69       1.0  0.11010120492175535  0.4904695324601508  0.10967854043498444  1.0000
  C   C70       1.0  0.8898987950108905  0.5095304677473005  0.8903214594729941  1.0000
  C   C71       1.0  0.4519961920549597  0.4506423648059703  0.7374853439208175  1.0000
  C   C72       1.0  0.5480038078222386  0.5493576346153174  0.26251465598765067  1.0000
  C   C73       1.0  0.5029102356276368  0.36713275485607955  0.74624901166083  1.0000
  C   C74       1.0  0.4970897643050089  0.6328672453513718  0.2537509882471485  1.0000
  C   C75       1.0  0.4931447093294086  0.25079082429136956  0.6506410138065256  1.0000
  C   C76       1.0  0.5068552906032371  0.7492091759160818  0.349358986101453  1.0000
  C   C77       1.0  0.43464502527523136  0.21752296284872025  0.5461612026359769  1.0000
  C   C78       1.0  0.5653549746574144  0.7824770373587312  0.45383879727200177  1.0000
  C   C79       1.0  0.3839532605820041  0.30367040879115315  0.5408759643992783  1.0000
  C   C80       1.0  0.6160467393506418  0.6963295914162982  0.45912403550870023  1.0000
  C   C81       1.0  0.39186573179168244  0.4199647353773562  0.6363644224800776  1.0000
  C   C82       1.0  0.6081342681409634  0.5800352648300953  0.3636355774279009  1.0000
  C   C83       1.0  0.4267154311790446  0.09304049725354592  0.4428440473942038  1.0000
  C   C84       1.0  0.5732845686981536  0.9069595021677418  0.5571559525142644  1.0000
  Br  Br1       1.0  0.9471539630589744  0.18766563741769776  0.057192195377491845  1.0000
  Br  Br2       1.0  0.05284603755982088  0.8123343627975596  0.942807804534368  1.0000
  Br  Br3       1.0  0.6477394307858386  0.7161522711215419  0.7938442519985116  1.0000
  Br  Br4       1.0  0.35226056914680715  0.2838477290859094  0.20615574790946695  1.0000
  Br  Br5       1.0  0.5675026112452307  0.12936941834320498  0.8980559129346449  1.0000
  Br  Br6       1.0  0.43249738868741505  0.8706305818642465  0.10194408697333371  1.0000
  I   I1        1.0  0.052792436803158004  0.05585742535355285  0.17167900478799916  1.0000
  I   I2        1.0  0.9472075631294877  0.9441425748538985  0.8283209951199795  1.0000
  I   I3        1.0  0.6607976922544011  0.9765902003082898  0.009555960349277134  1.0000
  I   I4        1.0  0.3392023076782447  0.023409799899161435  0.9904440395587013  1.0000
  I   I5        1.0  0.45821573232312557  0.6294903293084245  0.8836852953904554  1.0000
  I   I6        1.0  0.5417842675540726  0.3705096701128633  0.11631470451801292  1.0000
