data_image0
_chemical_formula_structural       H120C48N16O32Cl8
_chemical_formula_sum              "H120 C48 N16 O32 Cl8"
_cell_length_a       23.22484373347245
_cell_length_b       6.035322129103457
_cell_length_c       14.973943072701685
_cell_angle_alpha    90.0
_cell_angle_beta     90.0
_cell_angle_gamma    90.0

_space_group_name_H-M_alt    "P 1"
_space_group_IT_number       1

loop_
  _space_group_symop_operation_xyz
  'x, y, z'

loop_
  _atom_site_type_symbol
  _atom_site_label
  _atom_site_symmetry_multiplicity
  _atom_site_fract_x
  _atom_site_fract_y
  _atom_site_fract_z
  _atom_site_occupancy
  H   H1        1.0  0.4894471519572381  0.159766794443371  0.606698440477034  1.0000
  H   H2        1.0  0.5105528483238208  0.8402332040482661  0.10669844090116033  1.0000
  H   H3        1.0  0.9894471516671942  0.8402332040482661  0.606698440477034  1.0000
  H   H4        1.0  0.010552848183291339  0.159766794443371  0.10669844090116033  1.0000
  H   H5        1.0  0.5771662063190045  0.6092858610259883  0.5231918648256554  1.0000
  H   H6        1.0  0.422833793531481  0.39071413912256114  0.023191864581954956  1.0000
  H   H7        1.0  0.07716620617847507  0.39071413912256114  0.5231918648256554  1.0000
  H   H8        1.0  0.9228337936720103  0.6092858610259883  0.023191864581954956  1.0000
  H   H9        1.0  0.6122113144515064  0.5378165192455396  0.624100041293524  1.0000
  H   H10       1.0  0.3877886853989791  0.46218347924609743  0.1241000417176503  1.0000
  H   H11       1.0  0.11221131474155031  0.46218347924609743  0.624100041293524  1.0000
  H   H12       1.0  0.8877886855395085  0.5378165192455396  0.1241000417176503  1.0000
  H   H13       1.0  0.6470035855760443  0.39012807761261403  0.4409336797891763  1.0000
  H   H14       1.0  0.3529964147050146  0.6098719225359354  0.9409336800328768  1.0000
  H   H15       1.0  0.14700358543551487  0.6098719225359354  0.4409336797891763  1.0000
  H   H16       1.0  0.8529964144149705  0.39012807761261403  0.9409336800328768  1.0000
  H   H17       1.0  0.682228330654563  0.3222253872120806  0.5347372713468789  1.0000
  H   H18       1.0  0.3177716691959225  0.6777746129364688  0.03473727177100526  1.0000
  H   H19       1.0  0.18222833051403362  0.6777746129364688  0.5347372713468789  1.0000
  H   H20       1.0  0.8177716693364518  0.3222253872120806  0.03473727177100526  1.0000
  H   H21       1.0  0.6638130739187945  0.7868175001133563  0.4751802658427105  1.0000
  H   H22       1.0  0.3361869263622643  0.21318250003519323  0.975180266086411  1.0000
  H   H23       1.0  0.16381307377826507  0.21318250003519323  0.4751802658427105  1.0000
  H   H24       1.0  0.8361869260722204  0.7868175001133563  0.975180266086411  1.0000
  H   H25       1.0  0.7271668577756647  0.6224512991418496  0.45631117380541714  1.0000
  H   H26       1.0  0.27283314207482073  0.3775487010066999  0.9563111733812908  1.0000
  H   H27       1.0  0.2271668580657087  0.3775487010066999  0.45631117380541714  1.0000
  H   H28       1.0  0.7728331422153502  0.6224512991418496  0.9563111733812908  1.0000
  H   H29       1.0  0.7060610348205015  0.6946332706557238  0.5674651832683164  1.0000
  H   H30       1.0  0.2939389650299839  0.30536672949282573  0.06746518302461599  1.0000
  H   H31       1.0  0.2060610351105455  0.30536672949282573  0.5674651832683164  1.0000
  H   H32       1.0  0.7939389651705133  0.6946332706557238  0.06746518302461599  1.0000
  H   H33       1.0  0.4374558458430995  0.5308506773069179  0.5928670442312733  1.0000
  H   H34       1.0  0.5625441544379595  0.4691493211847191  0.09286704465539967  1.0000
  H   H35       1.0  0.9374558455530556  0.4691493211847191  0.5928670442312733  1.0000
  H   H36       1.0  0.06254415429742995  0.5308506773069179  0.09286704465539967  1.0000
  H   H37       1.0  0.3742270690705963  0.674601435168931  0.6265365064131565  1.0000
  H   H38       1.0  0.6257729307798892  0.32539856497961844  0.126536506169456  1.0000
  H   H39       1.0  0.8742270692111257  0.32539856497961844  0.6265365064131565  1.0000
  H   H40       1.0  0.12577293106993317  0.674601435168931  0.126536506169456  1.0000
  H   H41       1.0  0.4068179970736597  0.5781600808304073  0.43799790730850346  1.0000
  H   H42       1.0  0.5931820032073991  0.4218399193181422  0.9379979075522039  1.0000
  H   H43       1.0  0.9068179967836157  0.4218399193181422  0.43799790730850346  1.0000
  H   H44       1.0  0.09318200306686973  0.5781600808304073  0.9379979075522039  1.0000
  H   H45       1.0  0.34474812153247925  0.6985774677492327  0.47458629403736724  1.0000
  H   H46       1.0  0.6552518783180062  0.30142253239931677  0.9745862942810677  1.0000
  H   H47       1.0  0.8447481216730087  0.30142253239931677  0.47458629403736724  1.0000
  H   H48       1.0  0.15525187817747677  0.6985774677492327  0.9745862942810677  1.0000
  H   H49       1.0  0.3823917362768048  0.23819968499569658  0.5137351025478454  1.0000
  H   H50       1.0  0.6176082635736807  0.7618003151528528  0.013735102971971702  1.0000
  H   H51       1.0  0.8823917364173341  0.7618003151528528  0.5137351025478454  1.0000
  H   H52       1.0  0.11760826386372467  0.23819968499569658  0.013735102971971702  1.0000
  H   H53       1.0  0.32888047332656817  0.31920663202217225  0.43479641590658974  1.0000
  H   H54       1.0  0.6711195265239174  0.6807933681263771  0.9347964154824634  1.0000
  H   H55       1.0  0.8288804734670976  0.6807933681263771  0.43479641590658974  1.0000
  H   H56       1.0  0.1711195263833879  0.31920663202217225  0.9347964154824634  1.0000
  H   H57       1.0  0.3168653552399898  0.36844220282411416  0.5509085736434297  1.0000
  H   H58       1.0  0.6831346446104957  0.6315577973244353  0.05090857339972918  1.0000
  H   H59       1.0  0.8168653553805193  0.6315577973244353  0.5509085736434297  1.0000
  H   H60       1.0  0.1831346449005396  0.36844220282411416  0.05090857339972918  1.0000
  H   H61       1.0  0.37463113034686124  0.48476187971670204  0.2841200657264418  1.0000
  H   H62       1.0  0.6253688695036244  0.515238118774935  0.7841200653023154  1.0000
  H   H63       1.0  0.8746311304873906  0.515238118774935  0.2841200657264418  1.0000
  H   H64       1.0  0.12536886979366826  0.48476187971670204  0.7841200653023154  1.0000
  H   H65       1.0  0.44271781838433427  0.9294058278929433  0.29720634560934267  1.0000
  H   H66       1.0  0.5572821814661513  0.07059417225560598  0.7972063458530433  1.0000
  H   H67       1.0  0.9427178185248637  0.07059417225560598  0.29720634560934267  1.0000
  H   H68       1.0  0.057282181325621795  0.9294058278929433  0.7972063458530433  1.0000
  H   H69       1.0  0.48689531347426984  0.08051994733745714  0.22026927803759183  1.0000
  H   H70       1.0  0.5131046863762156  0.9194800528110922  0.7202692782812923  1.0000
  H   H71       1.0  0.9868953136147993  0.9194800528110922  0.22026927803759183  1.0000
  H   H72       1.0  0.013104686666259633  0.08051994733745714  0.7202692782812923  1.0000
  H   H73       1.0  0.5075622043049809  0.036694159029569136  0.4136394535445817  1.0000
  H   H74       1.0  0.49243779554550454  0.9633058394620679  0.9136394537882822  1.0000
  H   H75       1.0  0.0075622045950248734  0.9633058394620679  0.4136394535445817  1.0000
  H   H76       1.0  0.992437795686034  0.036694159029569136  0.9136394537882822  1.0000
  H   H77       1.0  0.5529247635579245  0.16234691355994796  0.3394790139991386  1.0000
  H   H78       1.0  0.44707523629256096  0.8376530865886015  0.8394790142428391  1.0000
  H   H79       1.0  0.05292476341739507  0.8376530865886015  0.3394790139991386  1.0000
  H   H80       1.0  0.9470752364330904  0.16234691355994796  0.8394790142428391  1.0000
  H   H81       1.0  0.5219753940702819  0.6846878081408809  0.34489490476393286  1.0000
  H   H82       1.0  0.47802460578020356  0.3153121920076685  0.8448949050076333  1.0000
  H   H83       1.0  0.02197539436032586  0.3153121920076685  0.34489490476393286  1.0000
  H   H84       1.0  0.978024605920733  0.6846878081408809  0.8448949050076333  1.0000
  H   H85       1.0  0.5889242613196687  0.8096378942951096  0.37689150163048923  1.0000
  H   H86       1.0  0.41107573853081675  0.19036210585343985  0.8768915012063629  1.0000
  H   H87       1.0  0.08892426117913926  0.19036210585343985  0.37689150163048923  1.0000
  H   H88       1.0  0.9110757386713463  0.8096378942951096  0.8768915012063629  1.0000
  H   H89       1.0  0.5669946024662074  0.8151671037202505  0.26251948407406056  1.0000
  H   H90       1.0  0.43300539738427807  0.18483289642829898  0.7625194843177611  1.0000
  H   H91       1.0  0.06699460275625133  0.18483289642829898  0.26251948407406056  1.0000
  H   H92       1.0  0.9330053975248076  0.8151671037202505  0.7625194843177611  1.0000
  H   H93       1.0  0.2702106533855979  0.9418385279866411  0.343664004532076  1.0000
  H   H94       1.0  0.7297893464648876  0.05816147216190834  0.8436640041079497  1.0000
  H   H95       1.0  0.7702106535261274  0.05816147216190834  0.343664004532076  1.0000
  H   H96       1.0  0.22978934632435813  0.9418385279866411  0.8436640041079497  1.0000
  H   H97       1.0  0.30769098220888474  0.06566835233016378  0.252300020886774  1.0000
  H   H98       1.0  0.6923090180721742  0.9343316478183856  0.7523000204626478  1.0000
  H   H99       1.0  0.8076909819188407  0.9343316478183856  0.252300020886774  1.0000
  H   H100      1.0  0.1923090179316447  0.06566835233016378  0.7523000204626478  1.0000
  H   H101      1.0  0.19511307985547766  0.8272975829944156  0.24733641179335503  1.0000
  H   H102      1.0  0.8048869199950078  0.17270241715413379  0.7473364120370556  1.0000
  H   H103      1.0  0.695113079996007  0.17270241715413379  0.24733641179335503  1.0000
  H   H104      1.0  0.3048869202850518  0.8272975829944156  0.7473364120370556  1.0000
  H   H105      1.0  0.23087494501726397  0.9043160569145559  0.15362817788414  1.0000
  H   H106      1.0  0.7691250548332216  0.09568394323399351  0.6536281781278405  1.0000
  H   H107      1.0  0.7308749451577934  0.09568394323399351  0.15362817788414  1.0000
  H   H108      1.0  0.26912505469269205  0.9043160569145559  0.6536281781278405  1.0000
  H   H109      1.0  0.1856138047459519  0.1983071316489599  0.2980904060025022  1.0000
  H   H110      1.0  0.8143861951045336  0.8016928684995895  0.7980904055783758  1.0000
  H   H111      1.0  0.6856138048864814  0.8016928684995895  0.2980904060025022  1.0000
  H   H112      1.0  0.31438619539457757  0.1983071316489599  0.7980904055783758  1.0000
  H   H113      1.0  0.15770979998978707  0.1666105965000701  0.18799408254275532  1.0000
  H   H114      1.0  0.8422902002912718  0.8333894036484794  0.6879940827864558  1.0000
  H   H115      1.0  0.6577097996997431  0.8333894036484794  0.18799408254275532  1.0000
  H   H116      1.0  0.34229020015074235  0.1666105965000701  0.6879940827864558  1.0000
  H   H117      1.0  0.22706865632854423  0.2948609108068198  0.20548202868550455  1.0000
  H   H118      1.0  0.7729313439525147  0.7051390876848173  0.7054820282613783  1.0000
  H   H119      1.0  0.7270686560385002  0.7051390876848173  0.20548202868550455  1.0000
  H   H120      1.0  0.27293134381198525  0.2948609108068198  0.7054820282613783  1.0000
  C   C1        1.0  0.5662758570489479  0.26825964635635885  0.5615263694523271  1.0000
  C   C2        1.0  0.433724143232111  0.7317403537921905  0.06152636920862656  1.0000
  C   C3        1.0  0.06627585690841849  0.7317403537921905  0.5615263694523271  1.0000
  C   C4        1.0  0.9337241433726403  0.26825964635635885  0.06152636920862656  1.0000
  C   C5        1.0  0.6020112174037671  0.4784392114011223  0.5566287757027091  1.0000
  C   C6        1.0  0.3979887828772919  0.5215607887474272  0.05662877545900853  1.0000
  C   C7        1.0  0.10201121726323757  0.5215607887474272  0.5566287757027091  1.0000
  C   C8        1.0  0.897988782587248  0.4784392114011223  0.05662877545900853  1.0000
  C   C9        1.0  0.6907148613826875  0.6521202308359064  0.5007239725432722  1.0000
  C   C10       1.0  0.3092851384677981  0.34787976931264303  0.0007239722995717289  1.0000
  C   C11       1.0  0.19071486124215795  0.34787976931264303  0.5007239725432722  1.0000
  C   C12       1.0  0.8092851386083276  0.6521202308359064  0.0007239722995717289  1.0000
  C   C13       1.0  0.43761381073802413  0.8732817034876207  0.5549292894767734  1.0000
  C   C14       1.0  0.5623861891124613  0.12671829666092876  0.054929289233072956  1.0000
  C   C15       1.0  0.9376138108785537  0.12671829666092876  0.5549292894767734  1.0000
  C   C16       1.0  0.062386189402505274  0.8732817034876207  0.054929289233072956  1.0000
  C   C17       1.0  0.40589963825735215  0.6571154041431643  0.5727780290307017  1.0000
  C   C18       1.0  0.5941003615931333  0.34288459600538523  0.07277802878700118  1.0000
  C   C19       1.0  0.9058996383978816  0.34288459600538523  0.5727780290307017  1.0000
  C   C20       1.0  0.09410036188317729  0.6571154041431643  0.07277802878700118  1.0000
  C   C21       1.0  0.3493668075064736  0.3614374002476061  0.49827127656188075  1.0000
  C   C22       1.0  0.6506331923440118  0.6385625999009433  0.9982712768055813  1.0000
  C   C23       1.0  0.849366807647003  0.6385625999009433  0.49827127656188075  1.0000
  C   C24       1.0  0.1506331926340558  0.3614374002476061  0.9982712768055813  1.0000
  C   C25       1.0  0.4413377694863601  0.2814946184574861  0.31467451806933094  1.0000
  C   C26       1.0  0.5586622307946988  0.7185053816910634  0.8146745183130314  1.0000
  C   C27       1.0  0.9413377691963162  0.7185053816910634  0.31467451806933094  1.0000
  C   C28       1.0  0.05866223065416932  0.2814946184574861  0.8146745183130314  1.0000
  C   C29       1.0  0.47224169238189156  0.07032708957708134  0.2897742103688338  1.0000
  C   C30       1.0  0.5277583074685939  0.9296729105714681  0.7897742106125343  1.0000
  C   C31       1.0  0.972241692522421  0.9296729105714681  0.2897742103688338  1.0000
  C   C32       1.0  0.02775830775863785  0.07032708957708134  0.7897742106125343  1.0000
  C   C33       1.0  0.5521663377875666  0.819855019194317  0.3316741960275077  1.0000
  C   C34       1.0  0.4478336620629188  0.18014498095423248  0.8316741962712082  1.0000
  C   C35       1.0  0.0521663376470372  0.18014498095423248  0.3316741960275077  1.0000
  C   C36       1.0  0.9478336622034482  0.819855019194317  0.8316741962712082  1.0000
  C   C37       1.0  0.3085448010860994  0.7091218461003271  0.2521125398748341  1.0000
  C   C38       1.0  0.6914551987643861  0.2908781540482223  0.7521125401185347  1.0000
  C   C39       1.0  0.8085448012266289  0.2908781540482223  0.2521125398748341  1.0000
  C   C40       1.0  0.1914551986238566  0.7091218461003271  0.7521125401185347  1.0000
  C   C41       1.0  0.27907617137843804  0.9285007676686251  0.27155041462745166  1.0000
  C   C42       1.0  0.7209238284720475  0.07149923247992435  0.7715504142033254  1.0000
  C   C43       1.0  0.7790761715189674  0.07149923247992435  0.27155041462745166  1.0000
  C   C44       1.0  0.22092382876209143  0.9285007676686251  0.7715504142033254  1.0000
  C   C45       1.0  0.1969447589181311  0.16694333764578562  0.22834391605464321  1.0000
  C   C46       1.0  0.8030552413629277  0.8330566625027639  0.7283439156305169  1.0000
  C   C47       1.0  0.6969447586280871  0.8330566625027639  0.22834391605464321  1.0000
  C   C48       1.0  0.3030552412223983  0.16694333764578562  0.7283439156305169  1.0000
  N   N1        1.0  0.6563316479081825  0.4448343058697371  0.5066028422286046  1.0000
  N   N2        1.0  0.34366835237287635  0.5551656942788123  0.006602842652730961  1.0000
  N   N3        1.0  0.15633164776765307  0.5551656942788123  0.5066028422286046  1.0000
  N   N4        1.0  0.8436683520828324  0.4448343058697371  0.006602842652730961  1.0000
  N   N5        1.0  0.3767673079060883  0.5823588525708254  0.4898848242166106  1.0000
  N   N6        1.0  0.6232326919443972  0.417641147577724  0.9898848237924843  1.0000
  N   N7        1.0  0.8767673080466177  0.417641147577724  0.4898848242166106  1.0000
  N   N8        1.0  0.12323269180386776  0.5823588525708254  0.9898848237924843  1.0000
  N   N9        1.0  0.5229256876547417  0.03478979174740265  0.3480915831383327  1.0000
  N   N10       1.0  0.47707431262631717  0.9652102084011468  0.8480915833820333  1.0000
  N   N11       1.0  0.02292568751421225  0.9652102084011468  0.3480915831383327  1.0000
  N   N12       1.0  0.9770743123362733  0.03478979174740265  0.8480915833820333  1.0000
  N   N13       1.0  0.22421015571765232  0.9452727241333643  0.22135634641503715  1.0000
  N   N14       1.0  0.7757898445634065  0.054727276015185185  0.7213563466587376  1.0000
  N   N15       1.0  0.7242101554276084  0.054727276015185185  0.22135634641503715  1.0000
  N   N16       1.0  0.27578984442287713  0.9452727241333643  0.7213563466587376  1.0000
  O   O1        1.0  0.5172097129199505  0.3052155627480383  0.6028942541165391  1.0000
  O   O2        1.0  0.4827902873611083  0.6947844374005112  0.10289425387283858  1.0000
  O   O3        1.0  0.017209712779421148  0.6947844374005112  0.6028942541165391  1.0000
  O   O4        1.0  0.9827902870710643  0.3052155627480383  0.10289425387283858  1.0000
  O   O5        1.0  0.5827414955001059  0.09003250338200557  0.5300626369062279  1.0000
  O   O6        1.0  0.41725850478095294  0.9099674967665439  0.030062637330354174  1.0000
  O   O7        1.0  0.08274149535957649  0.9099674967665439  0.5300626369062279  1.0000
  O   O8        1.0  0.917258504490909  0.09003250338200557  0.030062637330354174  1.0000
  O   O9        1.0  0.45064865839832047  0.9880623606226369  0.6241254507663765  1.0000
  O   O10       1.0  0.5493513418827385  0.011937639525912532  0.124125450522676  1.0000
  O   O11       1.0  0.9506486581082765  0.011937639525912532  0.6241254507663765  1.0000
  O   O12       1.0  0.04935134174220899  0.9880623606226369  0.124125450522676  1.0000
  O   O13       1.0  0.44881995459788154  0.9213194127926363  0.4754178672535564  1.0000
  O   O14       1.0  0.5511800456831772  0.0786805873559131  0.9754178674972568  1.0000
  O   O15       1.0  0.9488199543078376  0.0786805873559131  0.4754178672535564  1.0000
  O   O16       1.0  0.05118004554264787  0.9213194127926363  0.9754178674972568  1.0000
  O   O17       1.0  0.39430502935103257  0.31189927890056657  0.26885719015049203  1.0000
  O   O18       1.0  0.6056949709300263  0.6881007212479828  0.7688571903941925  1.0000
  O   O19       1.0  0.8943050290609886  0.6881007212479828  0.26885719015049203  1.0000
  O   O20       1.0  0.10569497078949686  0.31189927890056657  0.7688571903941925  1.0000
  O   O21       1.0  0.46055187680699866  0.408880448667382  0.3729814747447361  1.0000
  O   O22       1.0  0.5394481234740601  0.5911195514811675  0.8729814749884366  1.0000
  O   O23       1.0  0.9605518765169547  0.5911195514811675  0.3729814747447361  1.0000
  O   O24       1.0  0.039448123333530746  0.408880448667382  0.8729814749884366  1.0000
  O   O25       1.0  0.3535087268710961  0.6745667410804432  0.3011855379777593  1.0000
  O   O26       1.0  0.6464912734099628  0.32543325906810633  0.8011855382214599  1.0000
  O   O27       1.0  0.853508726581052  0.32543325906810633  0.3011855379777593  1.0000
  O   O28       1.0  0.14649127326943337  0.6745667410804432  0.8011855382214599  1.0000
  O   O29       1.0  0.28936388839139016  0.5830149617088788  0.19318873765946976  1.0000
  O   O30       1.0  0.7106361118896687  0.4169850384396707  0.6931887372353435  1.0000
  O   O31       1.0  0.7893638881013462  0.4169850384396707  0.19318873765946976  1.0000
  O   O32       1.0  0.2106361117491393  0.5830149617088788  0.6931887372353435  1.0000
  Cl  Cl1       1.0  0.13027569678065704  0.6512742610780737  0.30875418101651986  1.0000
  Cl  Cl2       1.0  0.8697243030698285  0.34872573907047577  0.8087541812602204  1.0000
  Cl  Cl3       1.0  0.6302756969211865  0.34872573907047577  0.30875418101651986  1.0000
  Cl  Cl4       1.0  0.36972430292929903  0.6512742610780737  0.8087541812602204  1.0000
  Cl  Cl5       1.0  0.2328476988719634  0.8783891906010847  0.012528619822390683  1.0000
  Cl  Cl6       1.0  0.767152300978522  0.12161080789055237  0.5125286200660912  1.0000
  Cl  Cl7       1.0  0.7328476990124928  0.12161080789055237  0.012528619822390683  1.0000
  Cl  Cl8       1.0  0.26715230083799263  0.8783891906010847  0.5125286200660912  1.0000
