data_image0
_chemical_formula_structural       H88C104N24O40
_chemical_formula_sum              "H88 C104 N24 O40"
_cell_length_a       8.830589211313232
_cell_length_b       33.64460528944398
_cell_length_c       8.886532765681448
_cell_angle_alpha    90.0
_cell_angle_beta     106.86601681723606
_cell_angle_gamma    90.0

_space_group_name_H-M_alt    "P 1"
_space_group_IT_number       1

loop_
  _space_group_symop_operation_xyz
  'x, y, z'

loop_
  _atom_site_type_symbol
  _atom_site_label
  _atom_site_symmetry_multiplicity
  _atom_site_fract_x
  _atom_site_fract_y
  _atom_site_fract_z
  _atom_site_occupancy
  H   H1        1.0  0.5281020627059653  0.5321486783980007  0.9383416010295155  1.0000
  H   H2        1.0  0.47189793717768164  0.03214867824112539  0.5616583990182941  1.0000
  H   H3        1.0  0.4718979373573205  0.4678513216185255  0.06165839860078061  1.0000
  H   H4        1.0  0.5281020628998332  0.967851321775401  0.4383416017413212  1.0000
  H   H5        1.0  0.6113113772065415  0.5777775632308884  0.749285192403908  1.0000
  H   H6        1.0  0.38868862267710547  0.07777756337123745  0.7507148076439015  1.0000
  H   H7        1.0  0.3886886228567443  0.4222224367856379  0.2507148072263881  1.0000
  H   H8        1.0  0.6113113774004093  0.9222224366452888  0.24928519311571368  1.0000
  H   H9        1.0  0.6225421728499235  0.6468141133707336  0.7859632027995112  1.0000
  H   H10       1.0  0.3774578270337234  0.14681411351108264  0.7140367972482983  1.0000
  H   H11       1.0  0.37745782721336224  0.35318588664579276  0.21403679683078486  1.0000
  H   H12       1.0  0.6225421730437914  0.8531858865054437  0.285963203511317  1.0000
  H   H13       1.0  0.574186267178779  0.6775315413538835  0.0075356920066240686  1.0000
  H   H14       1.0  0.4258137330783746  0.1775315411970081  0.4924643083354777  1.0000
  H   H15       1.0  0.42581373288450675  0.32246845866264284  0.992464307623672  1.0000
  H   H16       1.0  0.5741862669991401  0.8224684588195182  0.5075356924241375  1.0000
  H   H17       1.0  0.48291056367975843  0.6372749154149562  0.20416332630924125  1.0000
  H   H18       1.0  0.5170894365773953  0.13727491525808083  0.29583667403286057  1.0000
  H   H19       1.0  0.5170894363977564  0.3627250846015701  0.7958366744503741  1.0000
  H   H20       1.0  0.4829105634858906  0.8627250847584454  0.7041633255974354  1.0000
  H   H21       1.0  0.5461392371915146  0.590177898631194  0.391061865982036  1.0000
  H   H22       1.0  0.4538607630656392  0.09017789877154302  0.10893813436006579  1.0000
  H   H23       1.0  0.4538607628717713  0.40982210138533237  0.60893813364826  1.0000
  H   H24       1.0  0.5461392370118755  0.9098221012449833  0.8910618663995495  1.0000
  H   H25       1.0  0.4235063600465694  0.5518883238563581  0.4216622308114625  1.0000
  H   H26       1.0  0.5764936402105842  0.051888323699482784  0.07833776953063927  1.0000
  H   H27       1.0  0.5764936400309455  0.4481116761601681  0.5783377699481528  1.0000
  H   H28       1.0  0.4235063598527016  0.948111676019819  0.9216622300996568  1.0000
  H   H29       1.0  0.26081098653778834  0.5215973259019326  0.7998412743657067  1.0000
  H   H30       1.0  0.7391890133458586  0.021597325745057315  0.7001587256821027  1.0000
  H   H31       1.0  0.7391890135254975  0.47840267411459353  0.20015872526458928  1.0000
  H   H32       1.0  0.26081098554841464  0.9784026742714691  0.2998412747499056  1.0000
  H   H33       1.0  0.12219849489156184  0.4881678197352224  0.9747216394124809  1.0000
  H   H34       1.0  0.8778015049920851  0.9881678195948733  0.5252783606353286  1.0000
  H   H35       1.0  0.877801505171724  0.5118321802813038  0.0252783602178151  1.0000
  H   H36       1.0  0.12219849508542971  0.01183218042165294  0.47472164012428664  1.0000
  H   H37       1.0  0.9428442747139512  0.40098215906942963  0.6427164889417859  1.0000
  H   H38       1.0  0.05715572516969563  0.9009821589290805  0.8572835111060235  1.0000
  H   H39       1.0  0.05715572534933452  0.5990178409470966  0.3572835106885101  1.0000
  H   H40       1.0  0.9428442748935902  0.09901784108744573  0.14271648852427243  1.0000
  H   H41       1.0  0.07992602894433937  0.4290323716334064  0.45737502496131227  1.0000
  H   H42       1.0  0.9200739713128142  0.9290323714930573  0.042624975380789465  1.0000
  H   H43       1.0  0.9200739711189465  0.5709676283831199  0.5426249746689837  1.0000
  H   H44       1.0  0.07992602876470048  0.070967628523469  0.9573750253788258  1.0000
  H   H45       1.0  0.2929980135535296  0.49892978400512583  0.28902582588350384  1.0000
  H   H46       1.0  0.7070019855203825  0.9989297838647768  0.21097417413099098  1.0000
  H   H47       1.0  0.7070019865239853  0.5010702160114004  0.7109741748761115  1.0000
  H   H48       1.0  0.29299801335966175  0.0010702161517495115  0.7890258251716981  1.0000
  H   H49       1.0  0.16839568962327828  0.4614288988217333  0.32266614749971834  1.0000
  H   H50       1.0  0.8316043106338754  0.9614288989786087  0.1773338528423835  1.0000
  H   H51       1.0  0.8316043104400075  0.5385711011947929  0.6773338521305777  1.0000
  H   H52       1.0  0.16839568944363942  0.03857110103791758  0.8226661479172318  1.0000
  H   H53       1.0  0.9458715311152038  0.6460406702057407  0.46897528270444516  1.0000
  H   H54       1.0  0.05412846914195001  0.1460406700488654  0.031024717637656657  1.0000
  H   H55       1.0  0.05412846894808215  0.3539593298107855  0.5310247169258508  1.0000
  H   H56       1.0  0.9458715309213358  0.8539593299676609  0.9689752819926394  1.0000
  H   H57       1.0  0.051834613355024726  0.6905595657943284  0.2977555611215329  1.0000
  H   H58       1.0  0.948165386902129  0.19055956563745305  0.2022444392205689  1.0000
  H   H59       1.0  0.948165386708261  0.30944043422219786  0.7022444385087632  1.0000
  H   H60       1.0  0.051834613175385846  0.8094404343790732  0.7977555615390465  1.0000
  H   H61       1.0  0.8997914125114809  0.7503467938713098  0.1773145855552475  1.0000
  H   H62       1.0  0.10020858774567283  0.2503467940116588  0.3226854147868542  1.0000
  H   H63       1.0  0.10020858755180498  0.24965320614521652  0.8226854140750485  1.0000
  H   H64       1.0  0.899791412331842  0.7496532060048674  0.677314585972761  1.0000
  H   H65       1.0  0.6447095273114439  0.7663587391851406  0.22956920138121695  1.0000
  H   H66       1.0  0.3552904717624682  0.2663587393254897  0.27043079863327785  1.0000
  H   H67       1.0  0.3552904727660708  0.2336412608313857  0.7704307993783984  1.0000
  H   H68       1.0  0.6447095283008176  0.7336412606910366  0.7295692009970182  1.0000
  H   H69       1.0  0.8222240302598047  0.2708834531299867  0.21083581708056115  1.0000
  H   H70       1.0  0.17777596998312  0.770883453286862  0.2891641821322214  1.0000
  H   H71       1.0  0.17777596980348112  0.7291165468865396  0.789164182549735  1.0000
  H   H72       1.0  0.8222240300801659  0.22911654672966422  0.7108358174980746  1.0000
  H   H73       1.0  0.6953582403484464  0.29180938149036173  0.4152434967852176  1.0000
  H   H74       1.0  0.30464175872546573  0.7918093813500127  0.08475650322927716  1.0000
  H   H75       1.0  0.30464175972906843  0.7081906185261646  0.5847565039743977  1.0000
  H   H76       1.0  0.6953582401545785  0.20819061866651367  0.9152434960734118  1.0000
  H   H77       1.0  0.6767351479872201  0.36361731352628923  0.4731581534351538  1.0000
  H   H78       1.0  0.32326485226993357  0.8636173136831646  0.026841846906947974  1.0000
  H   H79       1.0  0.3232648520760657  0.6363826864902371  0.5268418461951422  1.0000
  H   H80       1.0  0.6767351478075813  0.13638268633336167  0.9731581538526674  1.0000
  H   H81       1.0  0.7903638754490091  0.4142537316189847  0.33393624243065534  1.0000
  H   H82       1.0  0.2096361248081447  0.9142537314786355  0.1660637579114465  1.0000
  H   H83       1.0  0.2096361246142768  0.5857462683975415  0.6660637571996408  1.0000
  H   H84       1.0  0.79036387526937  0.08574626853789066  0.8339362428481687  1.0000
  H   H85       1.0  0.9412593612615898  0.4224345117955427  0.9012751722412621  1.0000
  H   H86       1.0  0.05874063862205713  0.922434511952418  0.5987248278065475  1.0000
  H   H87       1.0  0.05874063880169602  0.5775654882209836  0.09872482738903397  1.0000
  H   H88       1.0  0.9412593614554577  0.07756548806410823  0.4012751729530678  1.0000
  C   C1        1.0  0.5369572375353033  0.5640755169136845  0.9585967459975216  1.0000
  C   C2        1.0  0.4630427623483436  0.06407551675680923  0.5414032540502879  1.0000
  C   C3        1.0  0.46304276254221144  0.43592448310284165  0.04140325476209365  1.0000
  C   C4        1.0  0.5369572377149423  0.9359244832597171  0.4585967455800081  1.0000
  C   C5        1.0  0.5842688144107503  0.5883473044105114  0.854467715915972  1.0000
  C   C6        1.0  0.41573118547289667  0.08834730425363604  0.6455322841318375  1.0000
  C   C7        1.0  0.41573118566676454  0.41165269560601486  0.1455322848436433  1.0000
  C   C8        1.0  0.5842688145903892  0.9116526957628902  0.3544677154984585  1.0000
  C   C9        1.0  0.562989849701948  0.645291687425791  0.0006565076680817394  1.0000
  C   C10       1.0  0.4370101505409767  0.14529168726891564  0.49934349154470076  1.0000
  C   C11       1.0  0.43701015036133783  0.3547083125907352  0.9993434919622143  1.0000
  C   C12       1.0  0.5629898495223091  0.8547083127476106  0.5006565080855953  1.0000
  C   C13       1.0  0.5146087041505606  0.6225667907173168  0.10846716940115768  1.0000
  C   C14       1.0  0.48539129492335165  0.12256679085766589  0.39153283061333716  1.0000
  C   C15       1.0  0.48539129592695424  0.3774332092992094  0.8915328313584576  1.0000
  C   C16       1.0  0.5146087051399342  0.8774332091588604  0.608467169016959  1.0000
  C   C17       1.0  0.5009776780902279  0.5812944673224077  0.08748063492770337  1.0000
  C   C18       1.0  0.4990223221669257  0.08129446716553236  0.4125193654143984  1.0000
  C   C19       1.0  0.499022321973058  0.41870553269411853  0.9125193647025927  1.0000
  C   C20       1.0  0.500977677910589  0.9187055328509939  0.5874806353452169  1.0000
  C   C21       1.0  0.43966011055776744  0.5554417089821903  0.19519884474417495  1.0000
  C   C22       1.0  0.5603398896993863  0.05544170882531482  0.30480115559792686  1.0000
  C   C23       1.0  0.5603398895197473  0.4445582910343361  0.8048011560154403  1.0000
  C   C24       1.0  0.43966011036389957  0.9445582911912115  0.6951988440323692  1.0000
  C   C25       1.0  0.19120536892328222  0.49492034686536773  0.7611883677209558  1.0000
  C   C26       1.0  0.8087946309603646  0.9949203470222431  0.7388116323268538  1.0000
  C   C27       1.0  0.8087946311542327  0.5050796531511585  0.23881163303865952  1.0000
  C   C28       1.0  0.19120536910292107  0.005079652994283186  0.2611883673034423  1.0000
  C   C29       1.0  0.11372634508001944  0.4766003405910368  0.8581299854984945  1.0000
  C   C30       1.0  0.8862736548036275  0.9766003404506878  0.641870014549315  1.0000
  C   C31       1.0  0.8862736549974953  0.5233996594254894  0.14187001526112078  1.0000
  C   C32       1.0  0.11372634525965833  0.023399659565838546  0.358129985080981  1.0000
  C   C33       1.0  0.015388480553215187  0.427691418169638  0.6719155063449092  1.0000
  C   C34       1.0  0.9846115193304317  0.9276914183265134  0.8280844937029003  1.0000
  C   C35       1.0  0.9846115195100706  0.5723085818468883  0.32808449328538675  1.0000
  C   C36       1.0  0.01538848074708305  0.07230858169001289  0.171915507056715  1.0000
  C   C37       1.0  0.090788650099785  0.4437895707661832  0.569016650014477  1.0000
  C   C38       1.0  0.909211349783862  0.9437895709230586  0.9309833500333327  1.0000
  C   C39       1.0  0.9092113499635008  0.5562104292503431  0.430983349615819  1.0000
  C   C40       1.0  0.09078865027942389  0.056210429093467726  0.06901664959696352  1.0000
  C   C41       1.0  0.17949991645364058  0.4785728666298791  0.6137739532034188  1.0000
  C   C42       1.0  0.820500084613248  0.9785728664895301  0.8862260471719977  1.0000
  C   C43       1.0  0.8205000836238742  0.5214271333866471  0.38622604755619655  1.0000
  C   C44       1.0  0.17949991545003793  0.021427133526996236  0.11377395245829829  1.0000
  C   C45       1.0  0.26232942702837264  0.4994243539326626  0.5102382239189522  1.0000
  C   C46       1.0  0.7376705728552743  0.999424354089538  0.9897617761288574  1.0000
  C   C47       1.0  0.7376705730349131  0.5005756460838637  0.48976177571134377  1.0000
  C   C48       1.0  0.2623294272222405  0.0005756459269883761  0.010238224630758032  1.0000
  C   C49       1.0  0.8788397109930017  0.6717592911423189  0.4119632383264665  1.0000
  C   C50       1.0  0.12116028808091044  0.1717592909854435  0.08803676168802838  1.0000
  C   C51       1.0  0.12116028908451311  0.3282407088742074  0.5880367624331488  1.0000
  C   C52       1.0  0.8788397119823753  0.8282407087338584  0.9119632379422677  1.0000
  C   C53       1.0  0.9386931449964543  0.697011513086696  0.31844278803815623  1.0000
  C   C54       1.0  0.06130685526069944  0.19701151322704497  0.18155721230394561  1.0000
  C   C55       1.0  0.06130685508106055  0.3029884869298304  0.6815572127214591  1.0000
  C   C56       1.0  0.9386931448025864  0.8029884867894813  0.8184427873263503  1.0000
  C   C57       1.0  0.8546000470627645  0.7309534612883677  0.2524575316197506  1.0000
  C   C58       1.0  0.14539995319438928  0.2309534611314923  0.24754246872235117  1.0000
  C   C59       1.0  0.1453999530147504  0.2690465387281586  0.7475424691398648  1.0000
  C   C60       1.0  0.8546000468688966  0.7690465388850339  0.7524575309079449  1.0000
  C   C61       1.0  0.7106148038799893  0.7398012955084171  0.2797612191813432  1.0000
  C   C62       1.0  0.2893851963771643  0.2398012956487662  0.22023878116075857  1.0000
  C   C63       1.0  0.28938519619752545  0.26019870450810917  0.720238781578272  1.0000
  C   C64       1.0  0.7106148036861215  0.76019870436776  0.7797612184695375  1.0000
  C   C65       1.0  0.6521650163734698  0.7134959932947015  0.37003750075697095  1.0000
  C   C66       1.0  0.3478349838836839  0.2134959931378261  0.1299624995851309  1.0000
  C   C67       1.0  0.347834983704045  0.28650400672182474  0.6299625000026444  1.0000
  C   C68       1.0  0.6521650161796019  0.7865040068787001  0.8700375000451651  1.0000
  C   C69       1.0  0.7338681714090097  0.6793960964425912  0.4394896921137642  1.0000
  C   C70       1.0  0.26613182884814407  0.17939609658294042  0.060510308228337605  1.0000
  C   C71       1.0  0.26613182865427615  0.3206039035739349  0.5605103075165319  1.0000
  C   C72       1.0  0.7338681712293706  0.8206039034335858  0.9394896925312777  1.0000
  C   C73       1.0  0.6804469242956136  0.6539739741545835  0.5541381536698714  1.0000
  C   C74       1.0  0.3195530755880333  0.1539739739977081  0.9458618463779381  1.0000
  C   C75       1.0  0.31955307576767217  0.3460260258619428  0.4458618459604248  1.0000
  C   C76       1.0  0.680446923292011  0.8460260260188182  0.05413815292475084  1.0000
  C   C77       1.0  0.8149045357967339  0.3020543612437175  0.23974464058316233  1.0000
  C   C78       1.0  0.1850954644604197  0.8020543611033684  0.26025535975893943  1.0000
  C   C79       1.0  0.1850954642807808  0.6979456387728088  0.7602553601764529  1.0000
  C   C80       1.0  0.8149045356028661  0.1979456389131579  0.7397446398713566  1.0000
  C   C81       1.0  0.7434772620825877  0.31399907590280396  0.35281959704262617  1.0000
  C   C82       1.0  0.25652273699132444  0.8139990757624549  0.14718040297186868  1.0000
  C   C83       1.0  0.25652273799492703  0.6860009241137223  0.6471804037169891  1.0000
  C   C84       1.0  0.7434772618887199  0.18600092395684695  0.8528195963308204  1.0000
  C   C85       1.0  0.7352722975633371  0.35431583154105734  0.3865936049735842  1.0000
  C   C86       1.0  0.2647277026938165  0.8543158316979327  0.11340639536851757  1.0000
  C   C87       1.0  0.26472770249994865  0.645684168475469  0.6134063946567118  1.0000
  C   C88       1.0  0.7352722973836983  0.14568416831859357  0.8865936053910978  1.0000
  C   C89       1.0  0.8001866998142633  0.3827798640883634  0.3090201024549678  1.0000
  C   C90       1.0  0.19981330044289042  0.8827798642452388  0.19097989788713396  1.0000
  C   C91       1.0  0.19981330024902255  0.6172201359281628  0.6909798971753282  1.0000
  C   C92       1.0  0.8001866996346244  0.11722013577128747  0.8090201028724814  1.0000
  C   C93       1.0  0.8734114853614752  0.3714397426419184  0.1955183101083156  1.0000
  C   C94       1.0  0.1265885148956785  0.8714397427987939  0.3044816902337862  1.0000
  C   C95       1.0  0.12658851470181065  0.6285602573746077  0.8044816895219805  1.0000
  C   C96       1.0  0.8734114851676074  0.12856025721773245  0.6955183093965098  1.0000
  C   C97       1.0  0.8782684206603638  0.33074221332866466  0.16263471873329924  1.0000
  C   C98       1.0  0.12173157959678986  0.8307422131883155  0.3373652816088026  1.0000
  C   C99       1.0  0.121731579402922  0.6692577866878616  0.8373652808969969  1.0000
  C   C100      1.0  0.878268420480725  0.16925778682821072  0.6626347191508128  1.0000
  C   C101      1.0  0.9341662662578069  0.4030969400094314  0.10936066465890261  1.0000
  C   C102      1.0  0.06583373399934687  0.9030969401663068  0.3906393356831992  1.0000
  C   C103      1.0  0.06583373381970797  0.5969030600070948  0.8906393361007127  1.0000
  C   C104      1.0  0.934166266063939  0.09690305985021945  0.6093606639470969  1.0000
  N   N1        1.0  0.59576784740172  0.6278271359785385  0.8777408965230235  1.0000
  N   N2        1.0  0.40423215248192707  0.1278271358216631  0.622259103524786  1.0000
  N   N3        1.0  0.4042321526615659  0.3721728640379878  0.12225910310727256  1.0000
  N   N4        1.0  0.5957678475955877  0.8721728641948632  0.3777408972348292  1.0000
  N   N5        1.0  0.4661059931963844  0.5680037725393039  0.342684795530014  1.0000
  N   N6        1.0  0.5338940058775278  0.06800377238242855  0.1573152044844808  1.0000
  N   N7        1.0  0.5338940068811304  0.4319962274772224  0.6573152052296013  1.0000
  N   N8        1.0  0.46610599300251654  0.9319962276340977  0.8426847948182082  1.0000
  N   N9        1.0  0.02613488485278278  0.4437632173584861  0.8128830039869894  1.0000
  N   N10       1.0  0.973865115030864  0.9437632175153614  0.6871169960608201  1.0000
  N   N11       1.0  0.973865115210503  0.5562367826580401  0.18711699564330667  1.0000
  N   N12       1.0  0.026134885032421666  0.0562367825011648  0.31288300356947585  1.0000
  N   N13       1.0  0.2422376737449259  0.484761542591708  0.36608734677776755  1.0000
  N   N14       1.0  0.7577623265122277  0.9847615427485834  0.13391265356433427  1.0000
  N   N15       1.0  0.7577623263183599  0.5152384574248183  0.6339126528525285  1.0000
  N   N16       1.0  0.24223767356528703  0.015238457267942967  0.8660873471952811  1.0000
  N   N17       1.0  0.49468202475200324  0.7210464673696553  0.3858873438259635  1.0000
  N   N18       1.0  0.5053179754909215  0.2210464672127799  0.11411265538681893  1.0000
  N   N19       1.0  0.5053179753112824  0.278953532646871  0.6141126558043324  1.0000
  N   N20       1.0  0.4946820245723644  0.7789535328037464  0.8858873442434771  1.0000
  N   N21       1.0  0.9558752976025426  0.31651498712458187  0.04722296425769818  1.0000
  N   N22       1.0  0.04412470265461114  0.8165149869842327  0.45277703608440356  1.0000
  N   N23       1.0  0.04412470247497226  0.6834850128919444  0.9527770365019169  1.0000
  N   N24       1.0  0.9558752974086747  0.18348501273506906  0.5472229635458925  1.0000
  O   O1        1.0  0.36546080530406483  0.5242120583157381  0.14122938084099598  1.0000
  O   O2        1.0  0.6345391949530889  0.02421205815886278  0.35877061950110584  1.0000
  O   O3        1.0  0.634539194759221  0.4757879417007881  0.8587706187893  1.0000
  O   O4        1.0  0.36546080512442597  0.9757879418576634  0.6412293812585095  1.0000
  O   O5        1.0  0.3448561946449495  0.5296256204138242  0.5619731404424494  1.0000
  O   O6        1.0  0.6551438052386975  0.02962562055417332  0.9380268596053601  1.0000
  O   O7        1.0  0.6551438054183363  0.470374379602702  0.4380268591878466  1.0000
  O   O8        1.0  0.3448561948245884  0.9703743794623529  0.061973140024935945  1.0000
  O   O9        1.0  0.6821344538841839  0.6167455846631786  0.5406249549202187  1.0000
  O   O10       1.0  0.317865545999463  0.11674558450630326  0.9593750451275909  1.0000
  O   O11       1.0  0.31786554499586034  0.38325441535334764  0.45937504438247034  1.0000
  O   O12       1.0  0.6821344540638228  0.8832544155102231  0.04062495450270527  1.0000
  O   O13       1.0  0.6424710637651736  0.6731011029903586  0.662306253673446  1.0000
  O   O14       1.0  0.35752893611847336  0.1731011031307078  0.8376937463743637  1.0000
  O   O15       1.0  0.3575289362981122  0.32689889702616753  0.3376937459568502  1.0000
  O   O16       1.0  0.6424710639448126  0.8268988968858184  0.1623062532559324  1.0000
  O   O17       1.0  0.3974620320976151  0.6932827337201161  0.3532181773641002  1.0000
  O   O18       1.0  0.6025379681595386  0.19328273356324072  0.1467818229780016  1.0000
  O   O19       1.0  0.6025379679656707  0.30671726629641016  0.6467818222661958  1.0000
  O   O20       1.0  0.39746203190374724  0.8067172664532856  0.8532181766522945  1.0000
  O   O21       1.0  0.46542577065078666  0.7546146988969351  0.42818990329052625  1.0000
  O   O22       1.0  0.534574229592138  0.25461469874005976  0.07181009592225632  1.0000
  O   O23       1.0  0.5345742294124991  0.24538530111959114  0.5718100963397698  1.0000
  O   O24       1.0  0.46542577047114775  0.7453853012764665  0.9281899037080398  1.0000
  O   O25       1.0  0.07545064936948251  0.3343876901872825  0.03755662786139581  1.0000
  O   O26       1.0  0.9245493508876712  0.8343876900469334  0.46244337248070594  1.0000
  O   O27       1.0  0.9245493506938033  0.6656123098292438  0.9624433717689002  1.0000
  O   O28       1.0  0.07545064918984361  0.16561230996959286  0.5375566282789093  1.0000
  O   O29       1.0  0.8979545539589118  0.28682291163712087  0.9683082421331554  1.0000
  O   O30       1.0  0.10204544592473516  0.7868229117939963  0.5316917579146542  1.0000
  O   O31       1.0  0.10204544610437405  0.7131770883794054  0.03169175749714077  1.0000
  O   O32       1.0  0.8979545541385506  0.21317708822253  0.4683082417156418  1.0000
  O   O33       1.0  0.8767067437363384  0.4012197674447167  0.9563469771677311  1.0000
  O   O34       1.0  0.1232932561473085  0.9012197676015921  0.5436530228800784  1.0000
  O   O35       1.0  0.12329325632694738  0.5987802325718096  0.04365302246256496  1.0000
  O   O36       1.0  0.8767067439302062  0.09878023241493417  0.4563469778795368  1.0000
  O   O37       1.0  0.02532540245907858  0.4293262826457345  0.18140871143369702  1.0000
  O   O38       1.0  0.974674597798075  0.9293262828026099  0.31859128890840477  1.0000
  O   O39       1.0  0.9746745976042072  0.5706737173707918  0.8185912881965991  1.0000
  O   O40       1.0  0.02532540227943969  0.07067371721391641  0.6814087118512104  1.0000
