data_image0
_chemical_formula_structural       H64C32N16S8I12
_chemical_formula_sum              "H64 C32 N16 S8 I12"
_cell_length_a       12.035274258669222
_cell_length_b       25.134005015911224
_cell_length_c       5.59983262353378
_cell_angle_alpha    90.0
_cell_angle_beta     90.0
_cell_angle_gamma    90.0

_space_group_name_H-M_alt    "P 1"
_space_group_IT_number       1

loop_
  _space_group_symop_operation_xyz
  'x, y, z'

loop_
  _atom_site_type_symbol
  _atom_site_label
  _atom_site_symmetry_multiplicity
  _atom_site_fract_x
  _atom_site_fract_y
  _atom_site_fract_z
  _atom_site_occupancy
  H   H1        1.0  0.9066368605717617  0.7488765279582167  0.726124208232859  1.0000
  H   H2        1.0  0.09336313870792054  0.25112347220446235  0.726124208232859  1.0000
  H   H3        1.0  0.40663686051647513  0.7511234718879345  0.2738757911360899  1.0000
  H   H4        1.0  0.5933631387632071  0.24887652787687714  0.2738757911360899  1.0000
  H   H5        1.0  0.010821960281144573  0.9195589996647446  0.930554725528854  1.0000
  H   H6        1.0  0.9891780398294286  0.08044100049793437  0.930554725528854  1.0000
  H   H7        1.0  0.5108219603364312  0.5804410001814065  0.06944527562586247  1.0000
  H   H8        1.0  0.48917803977414204  0.4195589995834051  0.06944527562586247  1.0000
  H   H9        1.0  0.878184625696155  0.8320673496627692  0.3858123724842018  1.0000
  H   H10       1.0  0.12181537441441814  0.16793265049990982  0.3858123724842018  1.0000
  H   H11       1.0  0.3781846256408684  0.6679326505812493  0.614187626884747  1.0000
  H   H12       1.0  0.6218153744697047  0.3320673495814297  0.614187626884747  1.0000
  H   H13       1.0  0.10765084634999082  0.6965910275308842  0.18880276270343463  1.0000
  H   H14       1.0  0.8923491537605824  0.3034089726317947  0.18880276270343463  1.0000
  H   H15       1.0  0.6076508455743865  0.8034089723152669  0.8111972366655142  1.0000
  H   H16       1.0  0.39234915370529583  0.19659102744954476  0.8111972366655142  1.0000
  H   H17       1.0  0.03301960399562525  0.6076193957282984  0.3951866865984107  1.0000
  H   H18       1.0  0.9669803961149479  0.3923806044343806  0.3951866865984107  1.0000
  H   H19       1.0  0.5330196040509119  0.89238060451572  0.6048133127705383  1.0000
  H   H20       1.0  0.46698039605966135  0.1076193956469589  0.6048133127705383  1.0000
  H   H21       1.0  0.9875075427914806  0.6236656354638552  0.10286031721364454  1.0000
  H   H22       1.0  0.012492457319092676  0.37633436469882375  0.10286031721364454  1.0000
  H   H23       1.0  0.48750754273619396  0.8763343647801632  0.8971396821553044  1.0000
  H   H24       1.0  0.5124924573743793  0.12366563538251577  0.8971396821553044  1.0000
  H   H25       1.0  0.7040272807989092  0.9677075227208154  0.622975518114422  1.0000
  H   H26       1.0  0.29597271931166397  0.03229247704399625  0.622975518114422  1.0000
  H   H27       1.0  0.20402728074362264  0.5322924771253357  0.37702448125452687  1.0000
  H   H28       1.0  0.7959727193669506  0.46770752263947585  0.37702448125452687  1.0000
  H   H29       1.0  0.7193823658620422  0.9078083101183301  0.7907351590101126  1.0000
  H   H30       1.0  0.2806176334176401  0.09219169004434896  0.7907351590101126  1.0000
  H   H31       1.0  0.21938236663764646  0.5921916901256885  0.20926484035883627  1.0000
  H   H32       1.0  0.7806176334729267  0.4078083100369905  0.20926484035883627  1.0000
  H   H33       1.0  0.8171970358644332  0.6655282029032233  0.25831852615036893  1.0000
  H   H34       1.0  0.18280296424614012  0.3344717968615883  0.25831852615036893  1.0000
  H   H35       1.0  0.3171970358091465  0.8344717969429277  0.7416814750043476  1.0000
  H   H36       1.0  0.6828029643014266  0.16552820321975123  0.7416814750043476  1.0000
  H   H37       1.0  0.8298785524397668  0.602389641062586  0.3988993297071756  1.0000
  H   H38       1.0  0.17012144767080645  0.39761035870222555  0.3988993297071756  1.0000
  H   H39       1.0  0.3298785523844801  0.897610358783565  0.6011006696617732  1.0000
  H   H40       1.0  0.6701214477260931  0.10238964098124653  0.6011006696617732  1.0000
  H   H41       1.0  0.9078325449982828  0.6422320187244851  0.7601866048834988  1.0000
  H   H42       1.0  0.09216745511229044  0.3577679814381939  0.7601866048834988  1.0000
  H   H43       1.0  0.40783254494299614  0.8577679815195335  0.2398133944854502  1.0000
  H   H44       1.0  0.592167454336686  0.14223201864314558  0.2398133944854502  1.0000
  H   H45       1.0  0.7857014062798429  0.6781226421817866  0.6904717051275051  1.0000
  H   H46       1.0  0.21429859383073038  0.32187735758302494  0.6904717051275051  1.0000
  H   H47       1.0  0.28570140622455625  0.8218773576643643  0.30952829424144374  1.0000
  H   H48       1.0  0.714298593886017  0.17812264249831455  0.30952829424144374  1.0000
  H   H49       1.0  0.9006969975936908  0.988988330521299  0.6659415326679369  1.0000
  H   H50       1.0  0.09930300251688244  0.01101166964137991  0.6659415326679369  1.0000
  H   H51       1.0  0.40069699753840415  0.5110116697227194  0.3340584684867796  1.0000
  H   H52       1.0  0.5993030025721691  0.4889883304399596  0.3340584684867796  1.0000
  H   H53       1.0  0.8501118944281798  0.9740986828203819  0.9558521709211779  1.0000
  H   H54       1.0  0.1498881048515024  0.02590131734229695  0.9558521709211779  1.0000
  H   H55       1.0  0.3501118952037842  0.5259013174236364  0.04414783023353853  1.0000
  H   H56       1.0  0.649888104906789  0.47409868273904254  0.04414783023353853  1.0000
  H   H57       1.0  0.7213352901988572  0.8838925609323379  0.3587428009111247  1.0000
  H   H58       1.0  0.2786647099117159  0.11610743883247371  0.3587428009111247  1.0000
  H   H59       1.0  0.22133529014357073  0.6161074389138131  0.6412571984578241  1.0000
  H   H60       1.0  0.7786647091361115  0.3838925608509984  0.6412571984578241  1.0000
  H   H61       1.0  0.8236440596989011  0.9335971487689815  0.3039189033700113  1.0000
  H   H62       1.0  0.17635594041167207  0.06640285099583011  0.3039189033700113  1.0000
  H   H63       1.0  0.32364405964361453  0.5664028510771696  0.6960810959989375  1.0000
  H   H64       1.0  0.6763559404669587  0.4335971490855094  0.6960810959989375  1.0000
  C   C1        1.0  0.9495601208894806  0.872294913051888  0.665097430653149  1.0000
  C   C2        1.0  0.050439879221092575  0.12770508711079095  0.665097430653149  1.0000
  C   C3        1.0  0.449560120834194  0.6277050871921305  0.3349025687157999  1.0000
  C   C4        1.0  0.5504398792763792  0.3722949129705485  0.3349025687157999  1.0000
  C   C5        1.0  0.9858609729191133  0.6369560804123834  0.28958307310561665  1.0000
  C   C6        1.0  0.014139027191459775  0.36304391935242813  0.28958307310561665  1.0000
  C   C7        1.0  0.48586097286382685  0.8630439194337677  0.7104169280490998  1.0000
  C   C8        1.0  0.5141390272467464  0.13695608072891133  0.7104169280490998  1.0000
  C   C9        1.0  0.7609144688500525  0.9349620028771224  0.6653354931256589  1.0000
  C   C10       1.0  0.23908553126052068  0.06503799688768923  0.6653354931256589  1.0000
  C   C11       1.0  0.26091446879476593  0.5650379969690287  0.33466450624329  1.0000
  C   C12       1.0  0.7390855313158073  0.43496200279578284  0.33466450624329  1.0000
  C   C13       1.0  0.8677102810912372  0.6418650660643673  0.3827475058794622  1.0000
  C   C14       1.0  0.13228971901933612  0.35813493409831154  0.3827475058794622  1.0000
  C   C15       1.0  0.3677102810359505  0.858134934179651  0.6172524934894866  1.0000
  C   C16       1.0  0.6322897190746226  0.14186506598302787  0.6172524934894866  1.0000
  C   C17       1.0  0.8692832439995285  0.6685190028156294  0.626475313790035  1.0000
  C   C18       1.0  0.1307167561110448  0.3314809969491822  0.626475313790035  1.0000
  C   C19       1.0  0.3692832439442418  0.8314809970305217  0.3735246873646816  1.0000
  C   C20       1.0  0.6307167561663314  0.16851900313215723  0.3735246873646816  1.0000
  C   C21       1.0  0.8657769491621172  0.9570818329498882  0.7786015356381479  1.0000
  C   C22       1.0  0.13422305094845602  0.042918166814923414  0.7786015356381479  1.0000
  C   C23       1.0  0.3657769491068306  0.5429181668962629  0.22139846373080102  1.0000
  C   C24       1.0  0.6342230510037427  0.4570818328685487  0.22139846373080102  1.0000
  C   C25       1.0  0.010148057067500913  0.7263591802596814  0.4543389152932335  1.0000
  C   C26       1.0  0.9898519430430722  0.27364081950513014  0.4543389152932335  1.0000
  C   C27       1.0  0.5101480571227875  0.7736408195864696  0.5456610840757153  1.0000
  C   C28       1.0  0.48985194298778567  0.2263591805762093  0.5456610840757153  1.0000
  C   C29       1.0  0.7916292047218776  0.9054022474967256  0.4378875092971264  1.0000
  C   C30       1.0  0.20837079538869563  0.09459775266595331  0.4378875092971264  1.0000
  C   C31       1.0  0.2916292046665909  0.5945977523494255  0.5621124900718225  1.0000
  C   C32       1.0  0.7083707954439822  0.40540224741538616  0.5621124900718225  1.0000
  N   N1        1.0  0.9310356090912217  0.7186638245104661  0.6135338877025053  1.0000
  N   N2        1.0  0.0689643910193515  0.2813361752543455  0.6135338877025053  1.0000
  N   N3        1.0  0.43103560903593513  0.7813361753356849  0.38646611166644357  1.0000
  N   N4        1.0  0.5689643910746381  0.21866382482699395  0.38646611166644357  1.0000
  N   N5        1.0  0.9483269516503742  0.914721986625118  0.8043980334464771  1.0000
  N   N6        1.0  0.051673048460198975  0.08527801353756086  0.8043980334464771  1.0000
  N   N7        1.0  0.4483269515950876  0.5852780132210329  0.19560196592247173  1.0000
  N   N8        1.0  0.5516730485154855  0.4147219865437786  0.19560196592247173  1.0000
  N   N9        1.0  0.8770429716129419  0.8656074046387404  0.49077296675801646  1.0000
  N   N10       1.0  0.12295702849763131  0.13439259552393854  0.49077296675801646  1.0000
  N   N11       1.0  0.3770429715576553  0.634392595605278  0.5092270326109325  1.0000
  N   N12       1.0  0.6229570285529179  0.36560740455740093  0.5092270326109325  1.0000
  N   N13       1.0  0.041751943428962005  0.6887015694093287  0.30320361949113844  1.0000
  N   N14       1.0  0.9582480558507203  0.3112984307533503  0.30320361949113844  1.0000
  N   N15       1.0  0.5417519434842486  0.8112984308346898  0.696796381663578  1.0000
  N   N16       1.0  0.45824805662632456  0.18870156932798918  0.696796381663578  1.0000
  S   S1        1.0  0.07893822189516513  0.7883592323410549  0.41696914300387117  1.0000
  S   S2        1.0  0.9210617782154081  0.21164076782162397  0.41696914300387117  1.0000
  S   S3        1.0  0.5789382219504517  0.7116407675050961  0.5830308581508454  1.0000
  S   S4        1.0  0.42106177816012147  0.2883592322597155  0.5830308581508454  1.0000
  S   S5        1.0  0.05360031820922793  0.824548719827199  0.7383290908775246  1.0000
  S   S6        1.0  0.9463996819013453  0.17545127993761261  0.7383290908775246  1.0000
  S   S7        1.0  0.5536003182645145  0.675451280018952  0.26167090849142427  1.0000
  S   S8        1.0  0.44639968184605866  0.3245487201437269  0.26167090849142427  1.0000
  I   I1        1.0  0.7641244355836457  0.7790858308337167  0.06324291703142253  1.0000
  I   I2        1.0  0.23587556452692737  0.22091416932896227  0.06324291703142253  1.0000
  I   I3        1.0  0.2641244355283592  0.7209141690124344  0.9367570823375264  1.0000
  I   I4        1.0  0.7358755645822139  0.2790858307523772  0.9367570823375264  1.0000
  I   I5        1.0  0.14107052182687307  0.9303785598513463  0.2545101855384772  1.0000
  I   I6        1.0  0.8589294782837001  0.06962143991346534  0.2545101855384772  1.0000
  I   I7        1.0  0.6410705218821597  0.5696214399948047  0.7454898138304717  1.0000
  I   I8        1.0  0.35892947822841353  0.4303785601678741  0.7454898138304717  1.0000
  I   I9        1.0  0.38944916744408864  0.9786926132316677  0.15629905728283597  1.0000
  I   I10       1.0  0.6105508326664845  0.021307386931011325  0.15629905728283597  1.0000
  I   I11       1.0  0.8894491674993752  0.5213073870123508  0.8437009438718805  1.0000
  I   I12       1.0  0.1105508326111979  0.47869261315032813  0.8437009438718805  1.0000
