data_image0
_chemical_formula_structural       H40C36N8O16
_chemical_formula_sum              "H40 C36 N8 O16"
_cell_length_a       9.670165806040526
_cell_length_b       10.72149792761129
_cell_length_c       10.820973537134678
_cell_angle_alpha    68.22220955334696
_cell_angle_beta     65.52819638067041
_cell_angle_gamma    72.78323762567405

_space_group_name_H-M_alt    "P 1"
_space_group_IT_number       1

loop_
  _space_group_symop_operation_xyz
  'x, y, z'

loop_
  _atom_site_type_symbol
  _atom_site_label
  _atom_site_symmetry_multiplicity
  _atom_site_fract_x
  _atom_site_fract_y
  _atom_site_fract_z
  _atom_site_occupancy
  H   H1        1.0  0.9222272556643295  0.9816688692380239  0.7094255510602757  1.0000
  H   H2        1.0  0.07777274458089696  0.01833113101774194  0.29057444903758173  1.0000
  H   H3        1.0  0.6420213416669147  0.5934026824560227  0.8895551920089271  1.0000
  H   H4        1.0  0.35797865877093277  0.40659731678081484  0.11044480839497392  1.0000
  H   H5        1.0  0.8435018211827964  0.5790511421330395  0.9840597822225916  1.0000
  H   H6        1.0  0.15649817792604698  0.4209488581239894  0.01594021828840628  1.0000
  H   H7        1.0  0.40006058157541724  0.6886059564033684  0.8606565372863813  1.0000
  H   H8        1.0  0.5999394186790898  0.311394043849306  0.13934346188507693  1.0000
  H   H9        1.0  0.3271270601588822  0.815067136785551  0.7275209733720358  1.0000
  H   H10       1.0  0.6728729400956249  0.18493286346712354  0.27247902579942246  1.0000
  H   H11       1.0  0.36960279562023945  0.8640993966689493  0.8485381779780988  1.0000
  H   H12       1.0  0.6303972046249869  0.13590060358681655  0.15146182211975873  1.0000
  H   H13       1.0  0.7325722235210723  0.7143065454495956  0.5251720467601482  1.0000
  H   H14       1.0  0.2674277767334349  0.2856934548030789  0.47482795241131  1.0000
  H   H15       1.0  0.53693542207899  0.7209501281258311  0.5452848487550366  1.0000
  H   H16       1.0  0.4630645783588576  0.2790498711110062  0.4547151516488645  1.0000
  H   H17       1.0  0.6212504168957629  0.5977823121641537  0.6730633086669191  1.0000
  H   H18       1.0  0.3787495822130806  0.40221768809287534  0.32693669184407886  1.0000
  H   H19       1.0  0.5630362597589198  0.9041975484641316  0.6071920484923412  1.0000
  H   H20       1.0  0.43696374048630665  0.09580245179163421  0.3928079516055162  1.0000
  H   H21       1.0  0.5513608456747746  0.5156319390534715  0.2790869760316966  1.0000
  H   H22       1.0  0.4486391545797326  0.4843680611992031  0.7209130231397616  1.0000
  H   H23       1.0  0.774105325535671  0.9192181883011948  0.17729857692215403  1.0000
  H   H24       1.0  0.22589467470955552  0.08078181195457095  0.8227014231757034  1.0000
  H   H25       1.0  0.5532927331599644  0.9470697779488642  0.10702857453654266  1.0000
  H   H26       1.0  0.4467072661415002  0.052930221289236586  0.8929714262804987  1.0000
  H   H27       1.0  0.15285217029786577  0.5848957253497072  0.2278729047416491  1.0000
  H   H28       1.0  0.8471478299566414  0.4151042749029672  0.7721270944298092  1.0000
  H   H29       1.0  0.01318819393554027  0.49284277894892853  0.2516437300443863  1.0000
  H   H30       1.0  0.9868118065023075  0.507157220287909  0.7483562703595148  1.0000
  H   H31       1.0  0.039347552095196754  0.501424941177597  0.40203751701493107  1.0000
  H   H32       1.0  0.9606524481500298  0.49857505907816874  0.5979624830829265  1.0000
  H   H33       1.0  0.04825704849076903  0.8506796353040015  0.16886734449199173  1.0000
  H   H34       1.0  0.9517429517637384  0.149320364948673  0.8311326546794665  1.0000
  H   H35       1.0  0.0624419890971362  0.763260438421573  0.3402305207488764  1.0000
  H   H36       1.0  0.9375580111480901  0.23673956183419265  0.6597694793489812  1.0000
  H   H37       1.0  0.8883886082441715  0.8750993729186736  0.323633856010773  1.0000
  H   H38       1.0  0.11161139219367613  0.12490062631816384  0.6763661443931281  1.0000
  H   H39       1.0  0.77014900006714  0.25171922022350374  0.4429002674117058  1.0000
  H   H40       1.0  0.22985100037998815  0.7482807790102424  0.5570997320657961  1.0000
  C   C1        1.0  0.8922893006429851  0.7794138278899769  0.8520961959146209  1.0000
  C   C2        1.0  0.10771069960224158  0.2205861723657888  0.14790380418323634  1.0000
  C   C3        1.0  0.8615535526090442  0.8967533642160804  0.7490849137198358  1.0000
  C   C4        1.0  0.13844644650908  0.10324663603785722  0.25091508586476297  1.0000
  C   C5        1.0  0.7519403527799454  0.9054401780646563  0.6924659589963765  1.0000
  C   C6        1.0  0.2480596474652811  0.09455982219110931  0.30753404110148097  1.0000
  C   C7        1.0  0.7246920152014091  0.03271171259776608  0.5768619133352331  1.0000
  C   C8        1.0  0.27530798504381737  0.9672882876579999  0.42313808676262427  1.0000
  C   C9        1.0  0.6739825662637051  0.7948579997271525  0.7449680445696013  1.0000
  C   C10       1.0  0.32601743398152133  0.20514200052861314  0.2550319555282561  1.0000
  C   C11       1.0  0.7037880050628047  0.6781167641274616  0.8500972290530018  1.0000
  C   C12       1.0  0.29621199518242186  0.32188323612830416  0.1499027710448556  1.0000
  C   C13       1.0  0.8154362345759772  0.6693828910909013  0.9038736848353616  1.0000
  C   C14       1.0  0.18456376566924917  0.3306171091648645  0.09612631526249595  1.0000
  C   C15       1.0  0.4029583825993668  0.791685922133811  0.7877506912470756  1.0000
  C   C16       1.0  0.5970416167113783  0.2083140771011985  0.21224930864356675  1.0000
  C   C17       1.0  0.6167978585532286  0.7011155235932328  0.6009209403236554  1.0000
  C   C18       1.0  0.38320214169199796  0.2988844766625329  0.3990790597742022  1.0000
  C   C19       1.0  0.541487158124856  0.7320953813361459  0.1853780054832156  1.0000
  C   C20       1.0  0.4585128411766084  0.26790461790195474  0.8146219953338261  1.0000
  C   C21       1.0  0.6027882454885017  0.6027516979365313  0.2551893877976211  1.0000
  C   C22       1.0  0.39721175362962235  0.3972483023174065  0.7448106117869776  1.0000
  C   C23       1.0  0.7235985026277774  0.5845260130166267  0.3008559303205701  1.0000
  C   C24       1.0  0.2764014976267299  0.41547398723604784  0.6991440688508881  1.0000
  C   C25       1.0  0.7563903586932295  0.4489437215700191  0.40151327399469583  1.0000
  C   C26       1.0  0.2436096415519969  0.5510562786857467  0.5984867261031617  1.0000
  C   C27       1.0  0.7946968430932875  0.6988681838261351  0.26729250163326645  1.0000
  C   C28       1.0  0.20530315734456014  0.30113181541070233  0.7327074987706343  1.0000
  C   C29       1.0  0.7234654427200098  0.8305164399851896  0.20369789052764156  1.0000
  C   C30       1.0  0.27653455752521655  0.16948356027057604  0.796302109570216  1.0000
  C   C31       1.0  0.5998298038552661  0.8469057147820004  0.16350336089135578  1.0000
  C   C32       1.0  0.4001701963899604  0.15309428547376516  0.8364966392065017  1.0000
  C   C33       1.0  0.0383136091949195  0.5578682753352077  0.29455942551615055  1.0000
  C   C34       1.0  0.9616863910595876  0.44213172491746683  0.7054405736553077  1.0000
  C   C35       1.0  0.9840454946843066  0.8003894820924217  0.27946774511839784  1.0000
  C   C36       1.0  0.01595450557020052  0.19961051816025285  0.7205322540530603  1.0000
  N   N1        1.0  0.010775963037977883  0.7709595616086712  0.9076223350694392  1.0000
  N   N2        1.0  0.9892240360708657  0.2290404386483577  0.09237766544155894  1.0000
  N   N3        1.0  0.5617236083402093  0.8026491280472392  0.6825491577800413  1.0000
  N   N4        1.0  0.4382763909612552  0.19735087119086145  0.31745084303700033  1.0000
  N   N5        1.0  0.9269352364963547  0.6836302565381707  0.29050114037440017  1.0000
  N   N6        1.0  0.07306476394149296  0.3163697426986667  0.7094988600295009  1.0000
  N   N7        1.0  0.4237956131483226  0.7456730651050542  0.13213562876289664  1.0000
  N   N8        1.0  0.5762043870969039  0.2543269351507116  0.8678643713349609  1.0000
  O   O1        1.0  0.059260169857512895  0.6578518376372365  0.9775174423686387  1.0000
  O   O2        1.0  0.9407398305803348  0.3421481615996009  0.022482558035262227  1.0000
  O   O3        1.0  0.05610765887854839  0.8778478932475414  0.8814613456067457  1.0000
  O   O4        1.0  0.9438923415685799  0.1221521059862047  0.11853865387075621  1.0000
  O   O5        1.0  0.8038878881301132  0.1233067506386879  0.5417211405178438  1.0000
  O   O6        1.0  0.19611211231701503  0.8766932485950583  0.45827885895965786  1.0000
  O   O7        1.0  0.6261882047720231  0.03943549583499287  0.5236111149184572  1.0000
  O   O8        1.0  0.3738117956658244  0.9605645034018446  0.47638888548544367  1.0000
  O   O9        1.0  0.39304628914914513  0.6394894843695927  0.13213391497072133  1.0000
  O   O10       1.0  0.6069537110960813  0.360510515886173  0.8678660851271361  1.0000
  O   O11       1.0  0.3581224252271406  0.8628887661262157  0.08329896667920178  1.0000
  O   O12       1.0  0.6418775752199877  0.13711123310753057  0.9167010327983  1.0000
  O   O13       1.0  0.7771322549199394  0.4381927990869276  0.5104704939185697  1.0000
  O   O14       1.0  0.22286774532528705  0.5618072011688381  0.48952950617928787  1.0000
  O   O15       1.0  0.7523049889123947  0.34472030641441537  0.36535499823645434  1.0000
  O   O16       1.0  0.24769501020572948  0.6552796938395223  0.6346450013481444  1.0000
