data_image0
_chemical_formula_structural       H70C68N6O10S4
_chemical_formula_sum              "H70 C68 N6 O10 S4"
_cell_length_a       10.859744261249354
_cell_length_b       11.934352856704521
_cell_length_c       12.822584490035238
_cell_angle_alpha    84.51677257746022
_cell_angle_beta     73.61327982196326
_cell_angle_gamma    75.74284966694704

_space_group_name_H-M_alt    "P 1"
_space_group_IT_number       1

loop_
  _space_group_symop_operation_xyz
  'x, y, z'

loop_
  _atom_site_type_symbol
  _atom_site_label
  _atom_site_symmetry_multiplicity
  _atom_site_fract_x
  _atom_site_fract_y
  _atom_site_fract_z
  _atom_site_occupancy
  H   H1        1.0  0.623288758953527  0.19676275487591421  0.7940407515101813  1.0000
  H   H2        1.0  0.37671124169723125  0.8032372445469749  0.20595924890507492  1.0000
  H   H3        1.0  0.31176731476598935  0.05944001702698718  0.27406761100378957  1.0000
  H   H4        1.0  0.6882326846968086  0.9405599832626896  0.7259323888410149  1.0000
  H   H5        1.0  0.7024281558337107  0.0259005440238269  0.4430085299626916  1.0000
  H   H6        1.0  0.29757184362908734  0.97409945626585  0.5569914698821129  1.0000
  H   H7        1.0  0.4700015066311474  0.40728107585784185  0.010794638614578548  1.0000
  H   H8        1.0  0.529998492833748  0.5927189244304406  0.9892053620097205  1.0000
  H   H9        1.0  0.4821903826085356  0.033885519856906195  0.4199233134135089  1.0000
  H   H10       1.0  0.5178096178142145  0.9661144804322613  0.5800766862005682  1.0000
  H   H11       1.0  0.05254451710470554  0.4790065287983518  0.8937979161809887  1.0000
  H   H12       1.0  0.9474554823601896  0.5209934714899307  0.10620208444331042  1.0000
  H   H13       1.0  0.41970075858438144  0.4029865005200802  0.3651896942305804  1.0000
  H   H14       1.0  0.580299240880514  0.5970134997682023  0.6348103063937186  1.0000
  H   H15       1.0  0.35007463332722305  0.35657067888943006  0.19234586333566456  1.0000
  H   H16       1.0  0.649925366135575  0.6434293214002468  0.8076541365091399  1.0000
  H   H17       1.0  0.23732339592678478  0.26911481047821084  0.6112531374243043  1.0000
  H   H18       1.0  0.7626766035360132  0.7308851898114659  0.3887468624205002  1.0000
  H   H19       1.0  0.45705372484224255  0.2815826109553148  0.6234077060753439  1.0000
  H   H20       1.0  0.5429462746205553  0.718417389334362  0.3765922937694606  1.0000
  H   H21       1.0  0.7863914068839769  0.41383245771195665  0.8232587716853497  1.0000
  H   H22       1.0  0.21360859257882087  0.5861675425777202  0.17674122815945476  1.0000
  H   H23       1.0  0.8879655594446908  0.38624986158291835  0.9142543001045265  1.0000
  H   H24       1.0  0.1120344400181072  0.6137501387067585  0.0857456997402781  1.0000
  H   H25       1.0  0.8763495022906461  0.5162251747793037  0.8330033060059845  1.0000
  H   H26       1.0  0.1236504973980625  0.4837748246454892  0.16699669386050456  1.0000
  H   H27       1.0  0.27110724451748924  0.4893829365783758  0.9080253963930534  1.0000
  H   H28       1.0  0.7288927549474062  0.5106170637099066  0.09197460423124562  1.0000
  H   H29       1.0  0.8804910784593724  0.41036755021261806  0.6235368827995634  1.0000
  H   H30       1.0  0.11950892100342562  0.5896324500770589  0.3764631170452411  1.0000
  H   H31       1.0  0.9799566685048784  0.5070910917485713  0.625562787587637  1.0000
  H   H32       1.0  0.020043332145879833  0.4929089076743178  0.37443721282761927  1.0000
  H   H33       1.0  0.053376877339279066  0.37087259550104906  0.5637174634573731  1.0000
  H   H34       1.0  0.9466231230834711  0.6291274047881183  0.436282536156704  1.0000
  H   H35       1.0  0.6429306652023123  0.3946216103552734  0.38297928473697385  1.0000
  H   H36       1.0  0.3570693342604856  0.6053783899344035  0.6170207151078306  1.0000
  H   H37       1.0  0.9059776988358628  0.0301436046179467  0.3436790674474867  1.0000
  H   H38       1.0  0.09402230181489553  0.9698563948049422  0.6563209329677695  1.0000
  H   H39       1.0  0.9212676393766488  0.15137663022717932  0.25216645874576316  1.0000
  H   H40       1.0  0.0787323600861489  0.8486233700624977  0.7478335410990413  1.0000
  H   H41       1.0  0.028429813338435448  0.1071929675659816  0.33838311471864213  1.0000
  H   H42       1.0  0.9715701861264597  0.8928070327223008  0.6616168859056568  1.0000
  H   H43       1.0  0.895268885345739  0.224848468712349  0.7397107110080764  1.0000
  H   H44       1.0  0.10473111507701102  0.7751515315768184  0.26028928860600076  1.0000
  H   H45       1.0  0.06753939212320048  0.1858715246307577  0.6788161058290623  1.0000
  H   H46       1.0  0.932460608527558  0.8141284747921311  0.32118389458619384  1.0000
  H   H47       1.0  0.007385106274087931  0.19034491442470258  0.8227488120452167  1.0000
  H   H48       1.0  0.9926148941486623  0.8096550858644649  0.17725118756886038  1.0000
  H   H49       1.0  0.8664156099499378  0.3546815561209244  0.323630334984615  1.0000
  H   H50       1.0  0.13358439047281231  0.645318444168243  0.6763696646294621  1.0000
  H   H51       1.0  0.8046831076590074  0.3776247344063967  0.4665844302329019  1.0000
  H   H52       1.0  0.1953168927637426  0.6223752658827707  0.5334155693811752  1.0000
  H   H53       1.0  0.970339855076762  0.3042979080933871  0.4104165849489118  1.0000
  H   H54       1.0  0.029660145345988202  0.6957020921957804  0.5895834146651654  1.0000
  H   H55       1.0  0.8188047655896841  0.062249176262586955  0.5494312185136183  1.0000
  H   H56       1.0  0.18119523506107413  0.9377508231603021  0.45056878190163785  1.0000
  H   H57       1.0  0.944006888928556  0.137467638234299  0.539119574685797  1.0000
  H   H58       1.0  0.055993111496291596  0.8625323620534739  0.4608804257077747  1.0000
  H   H59       1.0  0.7762948732531662  0.20566155622777846  0.5986348022040566  1.0000
  H   H60       1.0  0.2237051262117291  0.794338444060504  0.4013651984202423  1.0000
  H   H61       1.0  0.7522886557399732  0.8098605361186976  0.14040918633135796  1.0000
  H   H62       1.0  0.24771134372282483  0.1901394641709793  0.8595908135134466  1.0000
  H   H63       1.0  0.8302802557496156  0.18791898383207625  0.9714564557359865  1.0000
  H   H64       1.0  0.16971974371527962  0.812081016456206  0.028543544888312605  1.0000
  H   H65       1.0  0.9214426587900347  0.010098766205968543  0.8625739290297911  1.0000
  H   H66       1.0  0.07855734067276328  0.9899012340837084  0.13742607081501343  1.0000
  H   H67       1.0  0.6647810653614322  0.9871083340741219  0.2494795448169778  1.0000
  H   H68       1.0  0.3352189341013658  0.012891666215554933  0.7505204550278266  1.0000
  H   H69       1.0  0.7041520595256198  0.17632016772555942  0.16575217791630062  1.0000
  H   H70       1.0  0.2958479411230412  0.823679831698724  0.8342478217194609  1.0000
  C   C1        1.0  0.6419106265472451  0.10898320557231879  0.42511891158504506  1.0000
  C   C2        1.0  0.3580893741014158  0.8910167938519649  0.5748810880507166  1.0000
  C   C3        1.0  0.3763013088788083  0.38551189937275876  0.7671385728185712  1.0000
  C   C4        1.0  0.6236986908119978  0.6144881000506397  0.2328614278274122  1.0000
  C   C5        1.0  0.4387870170027234  0.2187926778039189  0.3910441715441702  1.0000
  C   C6        1.0  0.5612129834200268  0.7812073224852484  0.608955828069907  1.0000
  C   C7        1.0  0.5712248260324492  0.030418570254230375  0.8923963804526198  1.0000
  C   C8        1.0  0.4287751743903009  0.9695814300349371  0.1076036191614572  1.0000
  C   C9        1.0  0.3808189443514674  0.17529639443362668  0.1602890223041126  1.0000
  C   C10       1.0  0.6191810560733801  0.8247036058541461  0.8397109780894592  1.0000
  C   C11       1.0  0.46011367115290425  0.31876210462610793  0.029225108978804225  1.0000
  C   C12       1.0  0.5398863292698458  0.6812378956630596  0.9707748906352729  1.0000
  C   C13       1.0  0.4395077156594808  0.08879920887451738  0.0807293253276739  1.0000
  C   C14       1.0  0.5604922849912773  0.9112007905483716  0.9192706750875823  1.0000
  C   C15       1.0  0.508570229003701  0.11938834348140222  0.9736495848720966  1.0000
  C   C16       1.0  0.4914297706871051  0.8806116559419963  0.026350415773886852  1.0000
  C   C17       1.0  0.5179227791243005  0.11268087148275531  0.41312571026778044  1.0000
  C   C18       1.0  0.48207722033849737  0.8873191288069217  0.586874289577024  1.0000
  C   C19       1.0  0.13987805942250064  0.4335122779416439  0.8352769290571916  1.0000
  C   C20       1.0  0.8601219400402973  0.566487722348033  0.16472307078761286  1.0000
  C   C21       1.0  0.5170424074331316  0.23598584025399366  0.9476962070225456  1.0000
  C   C22       1.0  0.48295759298961866  0.7640141600351736  0.052303792591531416  1.0000
  C   C23       1.0  0.48295133597443674  0.32061175698504224  0.3807881072488224  1.0000
  C   C24       1.0  0.5170486634883612  0.6793882433046348  0.6192118925959822  1.0000
  C   C25       1.0  0.3937441816861307  0.28969703615452097  0.13226264300859225  1.0000
  C   C26       1.0  0.6062558177787646  0.7103029641337615  0.8677373576157067  1.0000
  C   C27       1.0  0.24399937504366598  0.3173743384580442  0.6766006359178421  1.0000
  C   C28       1.0  0.7560006253811815  0.6826256618297287  0.32339936447572964  1.0000
  C   C29       1.0  0.3678203017807097  0.3232767737753184  0.683057115394025  1.0000
  C   C30       1.0  0.6321796976820881  0.6767232265143585  0.3169428844507794  1.0000
  C   C31       1.0  0.8800369045180373  0.4233690182221154  0.8337626913139279  1.0000
  C   C32       1.0  0.1199630961327211  0.5766309812007735  0.16623730910132828  1.0000
  C   C33       1.0  0.2630714083707636  0.4406315312309048  0.8435678634105058  1.0000
  C   C34       1.0  0.7369285913179451  0.5593684681938882  0.15643213645598314  1.0000
  C   C35       1.0  0.9942030435676791  0.36163495598637946  0.74215834052098  1.0000
  C   C36       1.0  0.0057969558951189  0.6383650443032974  0.2578416593238246  1.0000
  C   C37       1.0  0.9767068175830956  0.4156973384215882  0.631853209799094  1.0000
  C   C38       1.0  0.023293182841751917  0.5843026618661847  0.36814679059447764  1.0000
  C   C39       1.0  0.6089886269846451  0.31485646229069636  0.39163494040184377  1.0000
  C   C40       1.0  0.39101137247815293  0.6851435379989805  0.6083650594429607  1.0000
  C   C41       1.0  0.8309308298826436  0.19914525490502538  0.4216925982565872  1.0000
  C   C42       1.0  0.16906917076601718  0.8008547445192581  0.5783074013791744  1.0000
  C   C43       1.0  0.9270393725596214  0.11655792604589059  0.3334388473437453  1.0000
  C   C44       1.0  0.0729606269031765  0.8834420742437863  0.6665611525010591  1.0000
  C   C45       1.0  0.6910550345211995  0.20964396024085405  0.4132435274007194  1.0000
  C   C46       1.0  0.3089449651675092  0.7903560391839388  0.5867564724657696  1.0000
  C   C47       1.0  0.12767021036101336  0.3716755702248162  0.752482685594755  1.0000
  C   C48       1.0  0.8723297900617367  0.6283244300643512  0.24751731401932214  1.0000
  C   C49       1.0  0.9914351246278693  0.23274568318153355  0.7462576255216647  1.0000
  C   C50       1.0  0.008564875796978315  0.7672543171062393  0.2537423748719069  1.0000
  C   C51       1.0  0.8691728011773315  0.3161872679027403  0.4045009988486041  1.0000
  C   C52       1.0  0.13082719924541863  0.6838127323864271  0.5954990007654731  1.0000
  C   C53       1.0  0.842404010945661  0.14766888903858774  0.5344555997990584  1.0000
  C   C54       1.0  0.15759598970509728  0.8523311103843012  0.4655444006161977  1.0000
  C   C55       1.0  0.7693449179699654  0.8927889858134583  0.10428606899620858  1.0000
  C   C56       1.0  0.23065508267869558  0.10721101361082509  0.895713930639553  1.0000
  C   C57       1.0  0.8431074968579704  0.8989741953041207  0.9953477682691403  1.0000
  C   C58       1.0  0.15689250356687706  0.10102580498365232  0.004652232124431332  1.0000
  C   C59       1.0  0.8961030708409298  0.7943554004487834  0.9369083656659094  1.0000
  C   C60       1.0  0.1038969288477791  0.20564459897600937  0.0630916342005796  1.0000
  C   C61       1.0  0.8143173168003942  0.10495752131483953  0.008834240087745476  1.0000
  C   C62       1.0  0.18568268266240365  0.8950424789748372  0.991165759757059  1.0000
  C   C63       1.0  0.8650962912806086  0.005707051370443604  0.9472007616986612  1.0000
  C   C64       1.0  0.13490370914214156  0.9942929489187239  0.05279923791541595  1.0000
  C   C65       1.0  0.7205839663816503  0.9923654057932414  0.16487973282833507  1.0000
  C   C66       1.0  0.27941603404319715  0.007634594494531668  0.8351202675652366  1.0000
  C   C67       1.0  0.7431413414203657  0.09849760400557249  0.11772169325707685  1.0000
  C   C68       1.0  0.25685865900238425  0.901502396283595  0.8822783063570003  1.0000
  N   N1        1.0  0.5842716211504637  0.268241607109681  0.8438175160696634  1.0000
  N   N2        1.0  0.41572837854034256  0.7317583923137173  0.15618248457632025  1.0000
  N   N3        1.0  0.3123141724774674  0.14698358493309588  0.26395894904968065  1.0000
  N   N4        1.0  0.6876858269853305  0.853016415356581  0.7360410507951238  1.0000
  N   N5        1.0  0.9389556401306367  0.7063312013905725  0.892803701510674  1.0000
  N   N6        1.0  0.06104435933216115  0.2936687988991043  0.10719629833413058  1.0000
  O   O1        1.0  0.5169242217573  0.4872214643390128  0.844513695227217  1.0000
  O   O2        1.0  0.4830757777054978  0.5127785359506641  0.1554863046175874  1.0000
  O   O3        1.0  0.6374061050142389  0.0569670903576035  0.7979155882066379  1.0000
  O   O4        1.0  0.3625938956365193  0.9430329090652856  0.20208441220861825  1.0000
  O   O5        1.0  0.2190072854544259  0.14656833309416478  0.4609841220266136  1.0000
  O   O6        1.0  0.7809927142342828  0.8534316663306282  0.5390158778398754  1.0000
  O   O7        1.0  0.6251818806293553  0.3806384570790547  0.6713004750995902  1.0000
  O   O8        1.0  0.3748181188334426  0.6193615432106221  0.32869952474521424  1.0000
  O   O9        1.0  0.2147973352320009  0.3377682697298516  0.36115023413141495  1.0000
  O   O10       1.0  0.7852026642328944  0.6622317305584309  0.6388497664928839  1.0000
  S   S1        1.0  0.28163336641069453  0.2198733858359179  0.3764451005405988  1.0000
  S   S2        1.0  0.7183666342379664  0.7801266135883655  0.6235548990951629  1.0000
  S   S3        1.0  0.5329468257011094  0.3910232022178048  0.7777622544191022  1.0000
  S   S4        1.0  0.4670531737637859  0.6089767980704777  0.22223774620519687  1.0000
