data_image0
_chemical_formula_structural       H22C34N2O6Cl10
_chemical_formula_sum              "H22 C34 N2 O6 Cl10"
_cell_length_a       7.091547835856567
_cell_length_b       9.360433065423434
_cell_length_c       14.252563193315673
_cell_angle_alpha    83.4066761411377
_cell_angle_beta     79.5973453027299
_cell_angle_gamma    67.87738482941364

_space_group_name_H-M_alt    "P 1"
_space_group_IT_number       1

loop_
  _space_group_symop_operation_xyz
  'x, y, z'

loop_
  _atom_site_type_symbol
  _atom_site_label
  _atom_site_symmetry_multiplicity
  _atom_site_fract_x
  _atom_site_fract_y
  _atom_site_fract_z
  _atom_site_occupancy
  H   H1        1.0  0.33939787872275856  0.9108328205219056  0.8757242391365636  1.0000
  H   H2        1.0  0.6606021222509352  0.08916718003748846  0.12427576060592678  1.0000
  H   H3        1.0  0.048779846730667334  0.21694708593988432  0.1946934608192553  1.0000
  H   H4        1.0  0.9512201528320701  0.7830529146188192  0.8053065389265013  1.0000
  H   H5        1.0  0.6632020658066908  0.6400280423295425  0.3305160869735922  1.0000
  H   H6        1.0  0.3367979335321054  0.35997195817116995  0.6694839134864536  1.0000
  H   H7        1.0  0.3728053664978265  0.883210249402387  0.5040717195225173  1.0000
  H   H8        1.0  0.6271946330649106  0.11678975115631651  0.49592828022323926  1.0000
  H   H9        1.0  0.10579775418375544  0.13328527099327112  0.5229364180957755  1.0000
  H   H10       1.0  0.8942022459524752  0.8667147284121369  0.47706358165081536  1.0000
  H   H11       1.0  0.795128087327895  0.45347536755376433  0.5691612093721666  1.0000
  H   H12       1.0  0.20487191364579901  0.5465246330056296  0.43083879037032374  1.0000
  H   H13       1.0  0.5089476116857774  0.1757399132836229  0.9385568249264912  1.0000
  H   H14       1.0  0.4910523896374692  0.8242600860644843  0.061443175531122746  1.0000
  H   H15       1.0  0.6163407642535189  0.0024592542186092146  0.8765906955910622  1.0000
  H   H16       1.0  0.3836592372936688  0.9975407451874891  0.12340930415226253  1.0000
  H   H17       1.0  0.673731897246378  0.16785943464519554  0.8291579772802412  1.0000
  H   H18       1.0  0.32626810231635917  0.8321405659135082  0.17084202246551528  1.0000
  H   H19       1.0  0.848090643946571  0.8114988565990938  0.9735339297716672  1.0000
  H   H20       1.0  0.15190935618966003  0.18850114280631416  0.026466069974923605  1.0000
  H   H21       1.0  0.8584533494635551  0.2718121033336782  0.9371637007000153  1.0000
  H   H22       1.0  0.14154665067267608  0.7281878960717297  0.06283629904657546  1.0000
  C   C1        1.0  0.5211447395085628  0.7155643363341228  0.628837107450613  1.0000
  C   C2        1.0  0.4788552618146837  0.2844356630139845  0.37116289300700095  1.0000
  C   C3        1.0  0.38323920343075174  0.8731472696625308  0.6363640237681571  1.0000
  C   C4        1.0  0.6167607981164361  0.12685272974356754  0.36363597597516745  1.0000
  C   C5        1.0  0.3230720722090669  0.9410348438729703  0.7255338550063952  1.0000
  C   C6        1.0  0.6769279273536702  0.05896515668573332  0.27446614473936126  1.0000
  C   C7        1.0  0.39053226119558376  0.8571864723074847  0.8072343797942609  1.0000
  C   C8        1.0  0.609467738716706  0.14281352703993233  0.19276562066661915  1.0000
  C   C9        1.0  0.5212900005521071  0.702576413245213  0.8019386190577665  1.0000
  C   C10       1.0  0.4787099993601827  0.29742358610220393  0.19806138140311363  1.0000
  C   C11       1.0  0.584355045549478  0.6314453217990224  0.7145361867533029  1.0000
  C   C12       1.0  0.41564495458675293  0.3685546776063856  0.2854638129932879  1.0000
  C   C13       1.0  0.583857156466391  0.658881455473216  0.5300528926703205  1.0000
  C   C14       1.0  0.41614284287240516  0.34111854502749644  0.4699471077897252  1.0000
  C   C15       1.0  0.8155490859969943  0.45004697566969  0.42432168854676094  1.0000
  C   C16       1.0  0.18445091391529558  0.5499530236777269  0.5756783119141191  1.0000
  C   C17       1.0  0.9557000407629155  0.29487527975179956  0.4310299033832578  1.0000
  C   C18       1.0  0.044299958799821536  0.705124720806904  0.5689700963624986  1.0000
  C   C19       1.0  0.03447967559598392  0.21353386547597045  0.34728586592920174  1.0000
  C   C20       1.0  0.9655203237428123  0.786466135024742  0.652714134530844  1.0000
  C   C21       1.0  0.9862751360637689  0.28319768904836495  0.25834623823697034  1.0000
  C   C22       1.0  0.01372486384852098  0.7168023102990521  0.7416537622239099  1.0000
  C   C23       1.0  0.8560077976724342  0.43725059258246574  0.2535820355349665  1.0000
  C   C24       1.0  0.14399220166636215  0.5627494079182468  0.7464179649250794  1.0000
  C   C25       1.0  0.7673653716356389  0.5211448592913307  0.3353728525768513  1.0000
  C   C26       1.0  0.23263462850059213  0.4788551401140772  0.6646271471697395  1.0000
  C   C27       1.0  0.6486817600190775  0.10052619169744684  0.8953455325341462  1.0000
  C   C28       1.0  0.3513182398932123  0.8994738076499701  0.104654467926734  1.0000
  C   C29       1.0  0.8304547201553545  0.04816686183442672  0.948221439352379  1.0000
  C   C30       1.0  0.16954527940738282  0.9518331387242769  0.05177856039337739  1.0000
  C   C31       1.0  0.9147034939683848  0.8952019913367926  0.9844271093628851  1.0000
  C   C32       1.0  0.08529650678136806  0.10479800916461028  0.015572891093894526  1.0000
  C   C33       1.0  0.9193598005558168  0.15213746423667374  0.9647485282088697  1.0000
  C   C34       1.0  0.08064019900692057  0.8478625363220297  0.03525147153688665  1.0000
  N   N1        1.0  0.7362982874824131  0.5208508261312577  0.5118220739316431  1.0000
  N   N2        1.0  0.26370171265381775  0.4791491732741505  0.48817792581494773  1.0000
  O   O1        1.0  0.3098914042782943  0.9595200003789196  0.560162999348253  1.0000
  O   O2        1.0  0.6901085958579368  0.040479999026488245  0.4398370003983378  1.0000
  O   O3        1.0  0.4964213497228701  0.742634652394994  0.4623355769414498  1.0000
  O   O4        1.0  0.5035786498398671  0.25736534816370954  0.5376644228043067  1.0000
  O   O5        1.0  0.9990732278878093  0.23825832775936964  0.5194008271668973  1.0000
  O   O6        1.0  0.0009267722484217512  0.7617416716460383  0.4805991725796936  1.0000
  Cl  Cl1       1.0  0.16848068721483325  0.13261360479375314  0.7313424437901346  1.0000
  Cl  Cl2       1.0  0.8315193129213978  0.8673863946116548  0.26865755595645635  1.0000
  Cl  Cl3       1.0  0.6030129185421828  0.6036797534548234  0.9058104494299327  1.0000
  Cl  Cl4       1.0  0.39698708137010724  0.39632024589259357  0.09418955103094753  1.0000
  Cl  Cl5       1.0  0.7342218063441897  0.43718965455216424  0.7182443172989599  1.0000
  Cl  Cl6       1.0  0.2657781932185476  0.5628103460065392  0.2817556824467968  1.0000
  Cl  Cl7       1.0  0.19237855662760095  0.021730887627687386  0.3542733284470351  1.0000
  Cl  Cl8       1.0  0.8076214435086299  0.9782691117777206  0.6457266712995559  1.0000
  Cl  Cl9       1.0  0.8016237280283255  0.5270084019587465  0.1431458415470755  1.0000
  Cl  Cl10      1.0  0.19837627153441148  0.47299159859995726  0.8568541581986809  1.0000
