data_image0
_chemical_formula_structural       H18C32N2O6Cl10
_chemical_formula_sum              "H18 C32 N2 O6 Cl10"
_cell_length_a       7.135440443111599
_cell_length_b       9.268151048168257
_cell_length_c       13.395767458910203
_cell_angle_alpha    88.27178187114895
_cell_angle_beta     85.67691204568445
_cell_angle_gamma    69.81979723847556

_space_group_name_H-M_alt    "P 1"
_space_group_IT_number       1

loop_
  _space_group_symop_operation_xyz
  'x, y, z'

loop_
  _atom_site_type_symbol
  _atom_site_label
  _atom_site_symmetry_multiplicity
  _atom_site_fract_x
  _atom_site_fract_y
  _atom_site_fract_z
  _atom_site_occupancy
  H   H1        1.0  0.5179216896895615  0.9116649117859873  0.8818816930965029  1.0000
  H   H2        1.0  0.4820783100506013  0.08833508833332789  0.11811830701679081  1.0000
  H   H3        1.0  0.9166107770899737  0.1737886180760834  0.1683500086687288  1.0000
  H   H4        1.0  0.0833892226501892  0.8262113820432319  0.8316499914445649  1.0000
  H   H5        1.0  0.7856600658801917  0.6102138643102089  0.3137792759752172  1.0000
  H   H6        1.0  0.21433993385997127  0.3897861358091064  0.6862207241380763  1.0000
  H   H7        1.0  0.6988730068992944  0.43565489671345653  0.5608123372574398  1.0000
  H   H8        1.0  0.3011269934602886  0.5643451022608416  0.43918766210759375  1.0000
  H   H9        1.0  0.7650228230774436  0.8543477825128448  0.4980547590309375  1.0000
  H   H10       1.0  0.2349771766627192  0.1456522176064704  0.5019452410823562  1.0000
  H   H11       1.0  0.7487527983533665  0.1085012658317707  0.5126648422973609  1.0000
  H   H12       1.0  0.2512472013867964  0.8914987342875446  0.4873351578159328  1.0000
  H   H13       1.0  0.12260628141562566  0.7481457273593314  0.08866939550700702  1.0000
  H   H14       1.0  0.8773937184286811  0.2518542727645002  0.911330603857645  1.0000
  H   H15       1.0  0.7742866515537297  0.8485740068344109  0.03665462185782906  1.0000
  H   H16       1.0  0.2257133481864332  0.15142599328490447  0.9633453782554645  1.0000
  H   H17       1.0  0.6515591808048741  0.1024541362264393  0.9470554572972423  1.0000
  H   H18       1.0  0.3484408189352888  0.8975458638928759  0.05294454281605136  1.0000
  C   C1        1.0  0.701769339666332  0.6971226952775386  0.6267550406792397  1.0000
  C   C2        1.0  0.29823066147518  0.30287730484197584  0.3732449594341729  1.0000
  C   C3        1.0  0.6735347620061845  0.8571668205110305  0.6344593667675837  1.0000
  C   C4        1.0  0.3264652377339783  0.14283317960828454  0.36554063334571  1.0000
  C   C5        1.0  0.6034012223397229  0.9327432130200836  0.7267365136665497  1.0000
  C   C6        1.0  0.39659877740043986  0.06725678709923177  0.27326348644674403  1.0000
  C   C7        1.0  0.5732364669143778  0.8521591191811687  0.8112951832932566  1.0000
  C   C8        1.0  0.4267635329299292  0.1478408809426628  0.18870481607139536  1.0000
  C   C9        1.0  0.6145043248771871  0.6937728645021038  0.8069060352914923  1.0000
  C   C10       1.0  0.385495676264325  0.30622713561741044  0.19309396482192026  1.0000
  C   C11       1.0  0.6778296476071687  0.6163091356486141  0.7157972266479136  1.0000
  C   C12       1.0  0.3221703521329941  0.38369086447070117  0.28420277346538014  1.0000
  C   C13       1.0  0.7520705033908143  0.6333707174682667  0.5235645144364371  1.0000
  C   C14       1.0  0.24792949634934852  0.3666292826510485  0.47643548567685656  1.0000
  C   C15       1.0  0.7728899239752687  0.422512461125466  0.4099673598420208  1.0000
  C   C16       1.0  0.2271100757648944  0.5774875389938492  0.5900326402712728  1.0000
  C   C17       1.0  0.788406208280365  0.2657101549879889  0.4158697760224642  1.0000
  C   C18       1.0  0.21159379145979793  0.7342898451313262  0.5841302240908294  1.0000
  C   C19       1.0  0.8441881172838586  0.17835303741643221  0.3278580512917103  1.0000
  C   C20       1.0  0.15581188245630434  0.8216469627028831  0.6721419488215833  1.0000
  C   C21       1.0  0.8740561220973799  0.2441205738900935  0.23550351062159164  1.0000
  C   C22       1.0  0.1259438776427829  0.7558794262292218  0.764496489491702  1.0000
  C   C23       1.0  0.8482583544902029  0.40007048285812613  0.2318227835304487  1.0000
  C   C24       1.0  0.15174164535410387  0.5999295172657054  0.7681772158342033  1.0000
  C   C25       1.0  0.7998668900486414  0.49006139511691427  0.3178088236233354  1.0000
  C   C26       1.0  0.20013310969152143  0.5099386050024011  0.6821911764899583  1.0000
  C   C27       1.0  0.068632598647197  0.858618584540402  0.05014748487368454  1.0000
  C   C28       1.0  0.931367401092966  0.14138141557891326  0.9498525152396091  1.0000
  C   C29       1.0  0.8724872487746742  0.9156348594021688  0.02072021138199433  1.0000
  C   C30       1.0  0.12751275096548878  0.08436514071714629  0.9792797887312993  1.0000
  C   C31       1.0  0.804172212073902  0.056882323988058314  0.970651684947035  1.0000
  C   C32       1.0  0.19582778906761003  0.9431176761314563  0.029348315166377405  1.0000
  N   N1        1.0  0.7285488412250324  0.49939866467583593  0.5020789715764633  1.0000
  N   N2        1.0  0.2714511600206236  0.5006013354481947  0.49792102778830744  1.0000
  O   O1        1.0  0.7094190091921257  0.9374235580959952  0.5550563830211429  1.0000
  O   O2        1.0  0.29058099054803704  0.06257644202331993  0.44494361709215074  1.0000
  O   O3        1.0  0.8094259454487311  0.7089109537149837  0.45482485832185326  1.0000
  O   O4        1.0  0.1905740556927807  0.29108904640453054  0.5451751417915592  1.0000
  O   O5        1.0  0.7504294181597598  0.21496038102208267  0.5081492237536986  1.0000
  O   O6        1.0  0.24957058298175222  0.7850396190974317  0.4918507763597139  1.0000
  Cl  Cl1       1.0  0.5524818273525546  0.1275386615610189  0.7331051796554223  1.0000
  Cl  Cl2       1.0  0.4475181723876082  0.8724613385582963  0.26689482045787144  1.0000
  Cl  Cl3       1.0  0.5872023072895961  0.5989419274046303  0.9161294519474193  1.0000
  Cl  Cl4       1.0  0.41279769306998687  0.4010580715696679  0.08387054741761417  1.0000
  Cl  Cl5       1.0  0.7346435166401646  0.41955686782384327  0.7183891462165578  1.0000
  Cl  Cl6       1.0  0.2653564830999982  0.580443132295472  0.28161085389673585  1.0000
  Cl  Cl7       1.0  0.8808778130277034  0.9842956935630229  0.33393469909843504  1.0000
  Cl  Cl8       1.0  0.11912218671245939  0.01570430655629227  0.6660653010148585  1.0000
  Cl  Cl9       1.0  0.8787863503595524  0.48591744681209265  0.11810635684638322  1.0000
  Cl  Cl10      1.0  0.12121364938061054  0.5140825533072225  0.8818936432669104  1.0000
