data_image0
_chemical_formula_structural       H20C8N10O8S2
_chemical_formula_sum              "H20 C8 N10 O8 S2"
_cell_length_a       5.176160158225576
_cell_length_b       8.526453461759008
_cell_length_c       10.726625636707576
_cell_angle_alpha    87.9127276357511
_cell_angle_beta     81.93637070524376
_cell_angle_gamma    87.61727273672477

_space_group_name_H-M_alt    "P 1"
_space_group_IT_number       1

loop_
  _space_group_symop_operation_xyz
  'x, y, z'

loop_
  _atom_site_type_symbol
  _atom_site_label
  _atom_site_symmetry_multiplicity
  _atom_site_fract_x
  _atom_site_fract_y
  _atom_site_fract_z
  _atom_site_occupancy
  H   H1        1.0  0.2254009919139073  0.00656353604753962  0.4580417952553861  1.0000
  H   H2        1.0  0.7745990071344886  0.9934364632541659  0.5419582053358318  1.0000
  H   H3        1.0  0.5251998563957573  0.06833164479467262  0.36485918908300313  1.0000
  H   H4        1.0  0.4748001445237656  0.9316683556861021  0.6351408113401341  1.0000
  H   H5        1.0  0.2542518463009557  0.013138235229590366  0.2889746737834216  1.0000
  H   H6        1.0  0.745748152667293  0.98686176523785  0.7110253258403955  1.0000
  H   H7        1.0  0.1995335272085562  0.43869877238177285  0.5404156366970307  1.0000
  H   H8        1.0  0.8004664718398398  0.5613012269199327  0.4595843638941871  1.0000
  H   H9        1.0  0.46458869057214014  0.2947246129455802  0.5289909134776788  1.0000
  H   H10       1.0  0.5354113104268241  0.7052753863522171  0.4710090860489373  1.0000
  H   H11       1.0  0.13905667806010455  0.2379079664443411  0.5942616420479907  1.0000
  H   H12       1.0  0.8609433228590656  0.7620920340278122  0.40573835744318565  1.0000
  H   H13       1.0  0.5829988186782641  0.3267656675560764  0.12778095302350825  1.0000
  H   H14       1.0  0.417001182240906  0.6732343329160769  0.8722190464676682  1.0000
  H   H15       1.0  0.6028957208089009  0.5021896135205238  0.19164457742022253  1.0000
  H   H16       1.0  0.39710428011062204  0.4978103869602507  0.8083554230029147  1.0000
  H   H17       1.0  0.7846546232935072  0.34676676095118025  0.24103329927493272  1.0000
  H   H18       1.0  0.2153453757545357  0.6532332383419042  0.7589667003843241  1.0000
  H   H19       1.0  0.8596033997843553  0.4265079694490748  0.09392121898688821  1.0000
  H   H20       1.0  0.1403965991838934  0.5734920310183655  0.9060787806369288  1.0000
  C   C1        1.0  0.31151244352873897  0.06774236809213366  0.37138838004568386  1.0000
  C   C2        1.0  0.6884875574705782  0.932257631214285  0.6286116204128932  1.0000
  C   C3        1.0  0.25469694596879117  0.31447603915087274  0.5252533003839058  1.0000
  C   C4        1.0  0.7453030529998107  0.6855239613251888  0.47474670017187215  1.0000
  C   C5        1.0  0.09969794089069092  0.1784752616830079  0.9006518305805568  1.0000
  C   C6        1.0  0.900302060028832  0.8215247387977667  0.0993481698425805  1.0000
  C   C7        1.0  0.4070216322509254  0.06080518060758111  0.9875962920707393  1.0000
  C   C8        1.0  0.5929783667971174  0.9391948186855033  0.012403707588517556  1.0000
  N   N1        1.0  0.9239490414904656  0.18080245745599757  0.8193510686128727  1.0000
  N   N2        1.0  0.07605095950849858  0.8191975418417998  0.18064893091374346  1.0000
  N   N3        1.0  0.16554893153132125  0.2744399536749349  0.9849581742998993  1.0000
  N   N4        1.0  0.8344510694676429  0.7255600456228624  0.015041825226716942  1.0000
  N   N5        1.0  0.7730706350419594  0.31142773074819186  0.8136749359709572  1.0000
  N   N6        1.0  0.2269293658772104  0.6885722697239615  0.18632506352021927  1.0000
  N   N7        1.0  0.3638347838786028  0.19752800718953342  0.039991989700879776  1.0000
  N   N8        1.0  0.6361652150896459  0.802471993277907  0.9600080099229372  1.0000
  N   N9        1.0  0.7079235328591212  0.4004759058389169  0.16361793296136612  1.0000
  N   N10       1.0  0.2920764661094804  0.5995240946371446  0.836382067594412  1.0000
  O   O1        1.0  0.8978076618125663  0.2673876549935185  0.3748700473878395  1.0000
  O   O2        1.0  0.10219233910695638  0.7326123454872561  0.6251299530352977  1.0000
  O   O3        1.0  0.24826334442384604  0.03866624531680654  0.8990607460174934  1.0000
  O   O4        1.0  0.7517366545447555  0.9613337551592551  0.10093925453828463  1.0000
  O   O5        1.0  0.7979202349582681  0.43163688074554507  0.874964247310966  1.0000
  O   O6        1.0  0.20207976604104916  0.5683631185608736  0.1250357531476112  1.0000
  O   O7        1.0  0.5987296806351439  0.30756060202290014  0.7420133024785112  1.0000
  O   O8        1.0  0.401270318413252  0.6924393972788055  0.2579866981127066  1.0000
  S   S1        1.0  0.1943722672110036  0.26871337633073483  0.37008964096734853  1.0000
  S   S2        1.0  0.8056277337883134  0.7312866229756839  0.6299103594912285  1.0000
