data_image0
_chemical_formula_structural       H48C24O14F12P2
_chemical_formula_sum              "H48 C24 O14 F12 P2"
_cell_length_a       10.847226431009174
_cell_length_b       9.920257514608755
_cell_length_c       7.853266237744857
_cell_angle_alpha    90.0
_cell_angle_beta     93.04148466672775
_cell_angle_gamma    90.0

_space_group_name_H-M_alt    "P 1"
_space_group_IT_number       1

loop_
  _space_group_symop_operation_xyz
  'x, y, z'

loop_
  _atom_site_type_symbol
  _atom_site_label
  _atom_site_symmetry_multiplicity
  _atom_site_fract_x
  _atom_site_fract_y
  _atom_site_fract_z
  _atom_site_occupancy
  H   H1        1.0  0.0886215573601323  0.05240187961194292  0.5928368988882298  1.0000
  H   H2        1.0  0.9113784423947238  0.5524018798836721  0.9071631003273394  1.0000
  H   H3        1.0  0.911378442738634  0.9475981199234769  0.4071631013559059  1.0000
  H   H4        1.0  0.08862155766758478  0.44759812065978616  0.09283689864176223  1.0000
  H   H5        1.0  0.16978012145656335  0.1210350193260436  0.4211197294338487  1.0000
  H   H6        1.0  0.8302198789496553  0.6210350185897344  0.07888027056381938  1.0000
  H   H7        1.0  0.8302198786422028  0.8789649812174146  0.5788802708102869  1.0000
  H   H8        1.0  0.16978012111265325  0.3789649809456855  0.9211197284052821  1.0000
  H   H9        1.0  0.16333053893123062  0.2650344959420838  0.6867020657465401  1.0000
  H   H10       1.0  0.836669461782558  0.7650344962138129  0.8132979347613828  1.0000
  H   H11       1.0  0.8366694611675355  0.7349655035933361  0.31329793449759546  1.0000
  H   H12       1.0  0.16333053831620817  0.23496550432964533  0.18670206548275284  1.0000
  H   H13       1.0  0.25855513931928287  0.14414520468790432  0.7992713967361103  1.0000
  H   H14       1.0  0.741444860472031  0.6441452049596335  0.7007286037544928  1.0000
  H   H15       1.0  0.7414448607794834  0.8558547948475155  0.20072860350802524  1.0000
  H   H16       1.0  0.2585551396267354  0.35585479558382477  0.2992713964896428  1.0000
  H   H17       1.0  0.41081619551837734  0.2968722269218381  0.8440119747133883  1.0000
  H   H18       1.0  0.5891838051589537  0.7968722271935672  0.6559880245195006  1.0000
  H   H19       1.0  0.5891838045439313  0.7031277726135817  0.15598802425571323  1.0000
  H   H20       1.0  0.4108161949398125  0.20312777234185264  0.3440119757246351  1.0000
  H   H21       1.0  0.35783684639487817  0.4331010967883578  0.7144045780623145  1.0000
  H   H22       1.0  0.6421631543189105  0.9331010960520485  0.7855954224456085  1.0000
  H   H23       1.0  0.6421631537038881  0.5668989037551003  0.2855954221818211  1.0000
  H   H24       1.0  0.3578368457798557  0.0668989034833713  0.2144045777985272  1.0000
  H   H25       1.0  0.5764622434967059  0.436979072732364  0.7308290322448351  1.0000
  H   H26       1.0  0.42353775625815004  0.9369790730040932  0.7691709669707338  1.0000
  H   H27       1.0  0.42353775660206017  0.5630209278110941  0.26917096799930046  1.0000
  H   H28       1.0  0.5764622438041586  0.06302092753936506  0.23082903199836768  1.0000
  H   H29       1.0  0.525765209928615  0.39400175592661024  0.5148983555536564  1.0000
  H   H30       1.0  0.474234789826241  0.8940017561983393  0.9851016436619128  1.0000
  H   H31       1.0  0.4742347901336936  0.6059982436088096  0.4851016434154452  1.0000
  H   H32       1.0  0.5257652102725251  0.10599824333708048  0.014898356582222879  1.0000
  H   H33       1.0  0.77026109532026  0.3372377778574171  0.6334972139990231  1.0000
  H   H34       1.0  0.22973890447105372  0.8372377781291462  0.8665027864915802  1.0000
  H   H35       1.0  0.22973890477850617  0.6627622216780027  0.3665027862451125  1.0000
  H   H36       1.0  0.7702610956277125  0.16276222140627364  0.13349721375255558  1.0000
  H   H37       1.0  0.6916460138785843  0.2884554796875005  0.4378186405176935  1.0000
  H   H38       1.0  0.30835398652763435  0.7884554799592296  0.06218135947997454  1.0000
  H   H39       1.0  0.3083539862201819  0.7115445198479193  0.5621813597264422  1.0000
  H   H40       1.0  0.6916460135711318  0.21154451957619025  0.9378186407641611  1.0000
  H   H41       1.0  0.7932609240258168  0.08103938923118835  0.6988945282198552  1.0000
  H   H42       1.0  0.2067390757290393  0.5810393884948791  0.801105470995714  1.0000
  H   H43       1.0  0.20673907603649178  0.9189606113122699  0.3011054707492464  1.0000
  H   H44       1.0  0.7932609243697268  0.4189606110405407  0.19889452924842166  1.0000
  H   H45       1.0  0.8858693455335069  0.15678927766839762  0.5448141185396016  1.0000
  H   H46       1.0  0.11413065425780677  0.6567892779401266  0.9551858819510016  1.0000
  H   H47       1.0  0.11413065456525927  0.8432107218670223  0.45518588170453406  1.0000
  H   H48       1.0  0.8858693458409594  0.34321072159529314  0.04481411829313403  1.0000
  C   C1        1.0  0.18084672835693344  0.08139334879270468  0.5520786298240155  1.0000
  C   C2        1.0  0.8191532714343803  0.5813933480563954  0.9479213706665877  1.0000
  C   C3        1.0  0.8191532717418326  0.9186066517507535  0.4479213704201201  1.0000
  C   C4        1.0  0.18084672866438592  0.41860665147902437  0.05207862957754796  1.0000
  C   C5        1.0  0.23406710259870556  0.18645425960728695  0.6720885161367866  1.0000
  C   C6        1.0  0.7659328971926083  0.6864542588709778  0.8279114843538166  1.0000
  C   C7        1.0  0.7659328975000607  0.8135457409361713  0.32791148410734905  1.0000
  C   C8        1.0  0.234067102906158  0.31354574066444213  0.17208851589031904  1.0000
  C   C9        1.0  0.4056545170391323  0.33440766382472636  0.7121431272939904  1.0000
  C   C10       1.0  0.5943454836381987  0.8344076630884172  0.7878568719388984  1.0000
  C   C11       1.0  0.594345483059634  0.6655923367187319  0.28785687295014517  1.0000
  C   C12       1.0  0.40565451642410977  0.16559233644700272  0.2121431270302031  1.0000
  C   C13       1.0  0.5316469394238176  0.3581102561872466  0.6481917483060493  1.0000
  C   C14       1.0  0.4683530603310385  0.8581102564589758  0.8518082509095197  1.0000
  C   C15       1.0  0.468353060638491  0.6418897433481732  0.3518082506630522  1.0000
  C   C16       1.0  0.5316469397677277  0.14188974408448243  0.14819174933461585  1.0000
  C   C17       1.0  0.715197860049445  0.2564927277596333  0.5700732972897421  1.0000
  C   C18       1.0  0.28480213970541113  0.756492727023324  0.929926701925827  1.0000
  C   C19       1.0  0.28480214001286364  0.7435072727838249  0.4299267016793595  1.0000
  C   C20       1.0  0.715197860393355  0.24350727251209578  0.07007329831830858  1.0000
  C   C21       1.0  0.7901862435366408  0.12972483608463609  0.5727718025192085  1.0000
  C   C22       1.0  0.20981375625467302  0.6297248363563652  0.9272281979713949  1.0000
  C   C23       1.0  0.20981375656212548  0.8702751634507837  0.4272281977249272  1.0000
  C   C24       1.0  0.7901862438440933  0.37027516418709305  0.07277180227274084  1.0000
  O   O1        1.0  0.25641950421986964  0.963095551292935  0.5546526769752866  1.0000
  O   O2        1.0  0.7435804955349865  0.4630955510212059  0.9453473222402825  1.0000
  O   O3        1.0  0.7435804958424389  0.03690444824248483  0.4453473219938148  1.0000
  O   O4        1.0  0.25641950456377977  0.5369044485142139  0.0546526780038532  1.0000
  O   O5        1.0  0.3396482827496018  0.24416631286365645  0.6003539067496135  1.0000
  O   O6        1.0  0.6603517170417119  0.7441663131353855  0.8996460937409897  1.0000
  O   O7        1.0  0.6603517173491644  0.7558336866717634  0.39964609349452207  1.0000
  O   O8        1.0  0.3396482830570543  0.2558336864000343  0.10035390650314598  1.0000
  O   O9        1.0  0.6042632194621036  0.23855431540108896  0.6582769677435595  1.0000
  O   O10       1.0  0.39573678029275233  0.738554315672818  0.8417230314720097  1.0000
  O   O11       1.0  0.3957367806002049  0.7614456841343309  0.34172303122554204  1.0000
  O   O12       1.0  0.6042632198060138  0.2614456848706401  0.15827696877212608  1.0000
  O   O13       1.0  0.5000000000493832  0.0  0.5000000001220678  1.0000
  O   O14       1.0  0.5000000003568357  0.5000000002717291  0.9999999998756003  1.0000
  F   F1        1.0  0.8499378472984037  0.5180955920177747  0.4701848467034121  1.0000
  F   F2        1.0  0.1500621531078151  0.018095591746045497  0.029815153294256005  1.0000
  F   F3        1.0  0.1500621528003626  0.4819044075176453  0.5298151535407235  1.0000
  F   F4        1.0  0.8499378469544934  0.9819044077893743  0.9701848456748455  1.0000
  F   F5        1.0  0.00809740619561275  0.6452911731951615  0.5987468598784339  1.0000
  F   F6        1.0  0.991902593595701  0.14529117292343235  0.9012531406121692  1.0000
  F   F7        1.0  0.9919025929806784  0.35470882734829673  0.40125314034838194  1.0000
  F   F8        1.0  0.00809740650306523  0.8547088266119875  0.09874685963196636  1.0000
  F   F9        1.0  0.9805898011340464  0.4230889151636636  0.6814885780656024  1.0000
  F   F10       1.0  0.01941019957974214  0.9230889154353928  0.8185114224423206  1.0000
  F   F11       1.0  0.019410198964719693  0.5769110853797945  0.3185114221785333  1.0000
  F   F12       1.0  0.9805898005190241  0.07691108510806548  0.181488577801815  1.0000
  P   P1        1.0  4.0621861430167883e-10  0.5000000002717291  0.4999999999976681  1.0000
  P   P2        1.0  0.9999999997911962  0.0  0.9999999997338808  1.0000
