data_image0
_chemical_formula_structural       H48C24O14F12P2
_chemical_formula_sum              "H48 C24 O14 F12 P2"
_cell_length_a       8.163749521229093
_cell_length_b       8.852821442421742
_cell_length_c       11.197064237748362
_cell_angle_alpha    90.0
_cell_angle_beta     90.0
_cell_angle_gamma    90.0

_space_group_name_H-M_alt    "P 1"
_space_group_IT_number       1

loop_
  _space_group_symop_operation_xyz
  'x, y, z'

loop_
  _atom_site_type_symbol
  _atom_site_label
  _atom_site_symmetry_multiplicity
  _atom_site_fract_x
  _atom_site_fract_y
  _atom_site_fract_z
  _atom_site_occupancy
  H   H1        1.0  0.05849495366782202  0.37462938020048264  0.09034807593489623  1.0000
  H   H2        1.0  0.941505046181623  0.6253706195259614  0.09034807593489623  1.0000
  H   H3        1.0  0.5584949535925445  0.12537061966273938  0.9096519233731043  1.0000
  H   H4        1.0  0.44150504625690046  0.8746293800637047  0.9096519233731043  1.0000
  H   H5        1.0  0.941505046181623  0.6253706195259614  0.9096519233731043  1.0000
  H   H6        1.0  0.05849495366782202  0.37462938020048264  0.9096519233731043  1.0000
  H   H7        1.0  0.44150504625690046  0.8746293800637047  0.09034807593489623  1.0000
  H   H8        1.0  0.5584949535925445  0.12537061966273938  0.09034807593489623  1.0000
  H   H9        1.0  0.18891078737651068  0.5045390567346784  0.16310193468777012  1.0000
  H   H10       1.0  0.8110892136978617  0.49546094299176574  0.16310193468777012  1.0000
  H   H11       1.0  0.6889107873012331  0.9954609428549878  0.8368980655133216  1.0000
  H   H12       1.0  0.3110892137731392  0.0045390568714562905  0.8368980655133216  1.0000
  H   H13       1.0  0.8110892136978617  0.49546094299176574  0.8368980655133216  1.0000
  H   H14       1.0  0.18891078737651068  0.5045390567346784  0.8368980655133216  1.0000
  H   H15       1.0  0.3110892137731392  0.0045390568714562905  0.16310193468777012  1.0000
  H   H16       1.0  0.6889107873012331  0.9954609428549878  0.16310193468777012  1.0000
  H   H17       1.0  0.32708621976412383  0.3601123642597609  0.2934503134243645  1.0000
  H   H18       1.0  0.6729137800853212  0.6398876354666831  0.2934503134243645  1.0000
  H   H19       1.0  0.8270862196888464  0.13988763560346115  0.7065496867767272  1.0000
  H   H20       1.0  0.17291378016059866  0.8601123641229829  0.7065496867767272  1.0000
  H   H21       1.0  0.6729137800853212  0.6398876354666831  0.7065496867767272  1.0000
  H   H22       1.0  0.32708621976412383  0.3601123642597609  0.7065496867767272  1.0000
  H   H23       1.0  0.17291378016059866  0.8601123641229829  0.2934503134243645  1.0000
  H   H24       1.0  0.8270862196888464  0.13988763560346115  0.2934503134243645  1.0000
  H   H25       1.0  0.2516408379088424  0.20798483985872804  0.2069735656411693  1.0000
  H   H26       1.0  0.7483591619406027  0.792015159867716  0.2069735656411693  1.0000
  H   H27       1.0  0.7516408390584922  0.29201516000449396  0.7930264345599225  1.0000
  H   H28       1.0  0.24835916201588012  0.7079848408515335  0.7930264345599225  1.0000
  H   H29       1.0  0.7483591619406027  0.792015159867716  0.7930264345599225  1.0000
  H   H30       1.0  0.2516408379088424  0.20798483985872804  0.7930264345599225  1.0000
  H   H31       1.0  0.24835916201588012  0.7079848408515335  0.2069735656411693  1.0000
  H   H32       1.0  0.7516408390584922  0.29201516000449396  0.2069735656411693  1.0000
  H   H33       1.0  0.11964583644562188  0.09831854010170772  0.39530369622047296  1.0000
  H   H34       1.0  0.8803541634038231  0.9016814596247363  0.39530369622047296  1.0000
  H   H35       1.0  0.6196458363703443  0.4016814597615143  0.6046963039806188  1.0000
  H   H36       1.0  0.3803541634791006  0.5983185399649297  0.6046963039806188  1.0000
  H   H37       1.0  0.8803541634038231  0.9016814596247363  0.6046963039806188  1.0000
  H   H38       1.0  0.11964583644562188  0.09831854010170772  0.6046963039806188  1.0000
  H   H39       1.0  0.3803541634791006  0.5983185399649297  0.39530369622047296  1.0000
  H   H40       1.0  0.6196458363703443  0.4016814597615143  0.39530369622047296  1.0000
  H   H41       1.0  0.3397119709256418  0.1043146183401816  0.4026577060083598  1.0000
  H   H42       1.0  0.6602880289238032  0.8956853813862624  0.4026577060083598  1.0000
  H   H43       1.0  0.8397119708503644  0.39568538152304045  0.5973422941927319  1.0000
  H   H44       1.0  0.1602880289990807  0.6043146182034036  0.5973422941927319  1.0000
  H   H45       1.0  0.6602880289238032  0.8956853813862624  0.5973422941927319  1.0000
  H   H46       1.0  0.3397119709256418  0.1043146183401816  0.5973422941927319  1.0000
  H   H47       1.0  0.1602880289990807  0.6043146182034036  0.4026577060083598  1.0000
  H   H48       1.0  0.8397119708503644  0.39568538152304045  0.4026577060083598  1.0000
  C   C1        1.0  0.07124224579497347  0.445481895873544  0.171230857418529  1.0000
  C   C2        1.0  0.9287577540544716  0.5545181038529001  0.171230857418529  1.0000
  C   C3        1.0  0.5712422457196961  0.05451810398967803  0.8287691427825629  1.0000
  C   C4        1.0  0.42875775412974904  0.9454818957367659  0.8287691427825629  1.0000
  C   C5        1.0  0.9287577540544716  0.5545181038529001  0.8287691427825629  1.0000
  C   C6        1.0  0.07124224579497347  0.445481895873544  0.8287691427825629  1.0000
  C   C7        1.0  0.42875775412974904  0.9454818957367659  0.171230857418529  1.0000
  C   C8        1.0  0.5712422457196961  0.05451810398967803  0.171230857418529  1.0000
  C   C9        1.0  0.22776278046806833  0.27651983335725566  0.2870001182244017  1.0000
  C   C10       1.0  0.7722372193813767  0.7234801663691883  0.2870001182244017  1.0000
  C   C11       1.0  0.727762780392791  0.22348016650596633  0.7129998819766901  1.0000
  C   C12       1.0  0.2722372194566542  0.7765198332204777  0.7129998819766901  1.0000
  C   C13       1.0  0.7722372193813767  0.7234801663691883  0.7129998819766901  1.0000
  C   C14       1.0  0.22776278046806833  0.27651983335725566  0.7129998819766901  1.0000
  C   C15       1.0  0.2722372194566542  0.7765198332204777  0.2870001182244017  1.0000
  C   C16       1.0  0.727762780392791  0.22348016650596633  0.2870001182244017  1.0000
  C   C17       1.0  0.22478834697560812  0.17719559805906104  0.39590311494822955  1.0000
  C   C18       1.0  0.7752116528738369  0.822804401667383  0.39590311494822955  1.0000
  C   C19       1.0  0.7247883469003306  0.322804401804161  0.6040968852528623  1.0000
  C   C20       1.0  0.27521165294911437  0.677195597922283  0.6040968852528623  1.0000
  C   C21       1.0  0.7752116528738369  0.822804401667383  0.6040968852528623  1.0000
  C   C22       1.0  0.22478834697560812  0.17719559805906104  0.6040968852528623  1.0000
  C   C23       1.0  0.27521165294911437  0.677195597922283  0.39590311494822955  1.0000
  C   C24       1.0  0.7247883469003306  0.322804401804161  0.39590311494822955  1.0000
  O   O1        1.0  0.07333735662064525  0.3510697397675966  0.2742091332877286  1.0000
  O   O2        1.0  0.9266626432287998  0.6489302610884308  0.2742091332877286  1.0000
  O   O3        1.0  0.5733373565453678  0.14893026009562543  0.7257908669133631  1.0000
  O   O4        1.0  0.42666264330407727  0.8510697396308186  0.7257908669133631  1.0000
  O   O5        1.0  0.9266626432287998  0.6489302610884308  0.7257908669133631  1.0000
  O   O6        1.0  0.07333735662064525  0.3510697397675966  0.7257908669133631  1.0000
  O   O7        1.0  0.42666264330407727  0.8510697396308186  0.2742091332877286  1.0000
  O   O8        1.0  0.5733373565453678  0.14893026009562543  0.2742091332877286  1.0000
  O   O9        1.0  0.22416338537104974  0.26652047546036983  0.5000000001005459  1.0000
  O   O10       1.0  0.7758366144783954  0.7334795242660741  0.5000000001005459  1.0000
  O   O11       1.0  0.7241633852957723  0.23347952440285216  0.5000000001005459  1.0000
  O   O12       1.0  0.2758366145536728  0.7665204753235918  0.5000000001005459  1.0000
  O   O13       1.0  0.0  0.49999999986322197  0.5000000001005459  1.0000
  O   O14       1.0  0.4999999999247225  0.9999999997264439  0.5000000001005459  1.0000
  F   F1        1.0  0.4999999999247225  0.49999999986322197  0.14716019976423314  1.0000
  F   F2        1.0  0.0  0.9999999997264439  0.8528398004368586  1.0000
  F   F3        1.0  0.4999999999247225  0.49999999986322197  0.8528398004368586  1.0000
  F   F4        1.0  0.0  0.9999999997264439  0.14716019976423314  1.0000
  F   F5        1.0  0.38583284087895137  0.3487685310362899  0.0  1.0000
  F   F6        1.0  0.614167160195421  0.6512314698197376  0.0  1.0000
  F   F7        1.0  0.8858328408036739  0.15123146882693214  0.0  1.0000
  F   F8        1.0  0.11416715904577115  0.8487685308995119  0.0  1.0000
  F   F9        1.0  0.33585642637247415  0.6066101914432092  0.0  1.0000
  F   F10       1.0  0.6641435734769708  0.39338980941281826  0.0  1.0000
  F   F11       1.0  0.8358564262971966  0.8933898092760403  0.0  1.0000
  F   F12       1.0  0.16414357355224835  0.10661019157998713  0.0  1.0000
  P   P1        1.0  0.4999999999247225  0.49999999986322197  0.0  1.0000
  P   P2        1.0  0.0  0.9999999997264439  0.0  1.0000
