data_image0
_chemical_formula_structural       H112C112N8O16Cl12
_chemical_formula_sum              "H112 C112 N8 O16 Cl12"
_cell_length_a       17.51339383489235
_cell_length_b       6.586143229254788
_cell_length_c       25.387847813667104
_cell_angle_alpha    90.0
_cell_angle_beta     109.47346877436992
_cell_angle_gamma    90.0

_space_group_name_H-M_alt    "P 1"
_space_group_IT_number       1

loop_
  _space_group_symop_operation_xyz
  'x, y, z'

loop_
  _atom_site_type_symbol
  _atom_site_label
  _atom_site_symmetry_multiplicity
  _atom_site_fract_x
  _atom_site_fract_y
  _atom_site_fract_z
  _atom_site_occupancy
  H   H1        1.0  0.8752288177356734  0.47512868018117355  0.010517803420437658  1.0000
  H   H2        1.0  0.6247711823006008  0.9751286809969173  0.4894821966302695  1.0000
  H   H3        1.0  0.12477118197070308  0.5248713199319748  0.9894821964938476  1.0000
  H   H4        1.0  0.37522881797574004  0.024871319116231  0.5105178032819053  1.0000
  H   H5        1.0  0.962446239702433  0.3950100961127087  0.9581786238224728  1.0000
  H   H6        1.0  0.5375537603247047  0.8950100954101133  0.541821375837953  1.0000
  H   H7        1.0  0.03755376057390788  0.6049899040004396  0.04182137608970195  1.0000
  H   H8        1.0  0.46244623995163625  0.10498990470303508  0.4581786240742218  1.0000
  H   H9        1.0  0.36481866011477854  0.3866427241801923  0.9716655044826616  1.0000
  H   H10       1.0  0.1351813398316646  0.8866427249959361  0.5283344952930913  1.0000
  H   H11       1.0  0.6351813395915981  0.6133572759329562  0.02833449543162368  1.0000
  H   H12       1.0  0.8648186604446763  0.11335727511721229  0.47166550461908346  1.0000
  H   H13       1.0  0.9073770590689404  0.3578673539212852  0.8569638975540252  1.0000
  H   H14       1.0  0.5926229411629804  0.8578673532186899  0.6430361025241838  1.0000
  H   H15       1.0  0.09262294063743619  0.6421326461918632  0.14303610236026  1.0000
  H   H16       1.0  0.4073770591133606  0.14213264689445856  0.3569638973879911  1.0000
  H   H17       1.0  0.6661892930818492  0.4298223727394262  0.8683015580952492  1.0000
  H   H18       1.0  0.8338107069452886  0.9298223720368308  0.6316984415651766  1.0000
  H   H19       1.0  0.3338107071944918  0.5701776273737221  0.13169844181692555  1.0000
  H   H20       1.0  0.16618929276108804  0.07017762807631761  0.36830155834910866  1.0000
  H   H21       1.0  0.7315906518724845  0.4729803591520846  0.9703733546198097  1.0000
  H   H22       1.0  0.768409348359436  0.9729803584494892  0.5296266454583992  1.0000
  H   H23       1.0  0.2684093478338919  0.5270196409610638  0.029626645294475524  1.0000
  H   H24       1.0  0.23159065191690484  0.027019641663659257  0.4703733544537756  1.0000
  H   H25       1.0  0.6752584110334462  0.3911470963092747  0.7785015339767282  1.0000
  H   H26       1.0  0.8247415891984746  0.8911470956066793  0.7214984661014808  1.0000
  H   H27       1.0  0.3247415894476778  0.6088529038038737  0.22149846635322978  1.0000
  H   H28       1.0  0.17525841050790195  0.10885290450646917  0.2785015338128044  1.0000
  H   H29       1.0  0.8473037991864143  0.3899561155293308  0.7698146983685129  1.0000
  H   H30       1.0  0.6526962010455063  0.8899561148267354  0.7301853017096961  1.0000
  H   H31       1.0  0.1526962010899266  0.6100438845838176  0.2301853015436619  1.0000
  H   H32       1.0  0.34730379943561757  0.11004388376807377  0.26981469862026186  1.0000
  H   H33       1.0  0.8610199356813085  0.40275283541019136  0.6837237068259522  1.0000
  H   H34       1.0  0.6389800645506122  0.9027528362259352  0.8162762932522569  1.0000
  H   H35       1.0  0.13898006479981537  0.597247164702957  0.31627629350400577  1.0000
  H   H36       1.0  0.36101993515576436  0.0972471638872132  0.18372370666202842  1.0000
  H   H37       1.0  0.8053539223636549  0.4064394345555226  0.5804702648205747  1.0000
  H   H38       1.0  0.6946460772983014  0.9064394353712664  0.9195297352597446  1.0000
  H   H39       1.0  0.19464607734272169  0.5935605655576258  0.4195297350937105  1.0000
  H   H40       1.0  0.30535392240807513  0.09356056474188194  0.0804702646545406  1.0000
  H   H41       1.0  0.6557331073171089  0.39999638457575454  0.5324291516524405  1.0000
  H   H42       1.0  0.8442668929148119  0.8999963838731592  0.9675708484257686  1.0000
  H   H43       1.0  0.344266893164015  0.6000036155373939  0.46757084867751736  1.0000
  H   H44       1.0  0.15573310736152912  0.10000361472165006  0.03242915148640635  1.0000
  H   H45       1.0  0.6179007826418436  0.383418193637694  0.6912741154165771  1.0000
  H   H46       1.0  0.8820992168153298  0.8834181929350987  0.8087258842459591  1.0000
  H   H47       1.0  0.382099217064533  0.6165818064754544  0.3087258844977082  1.0000
  H   H48       1.0  0.11790078289104677  0.1165818071780498  0.191274115668326  1.0000
  H   H49       1.0  0.5239603900386206  0.3590841221756414  0.5341345549672163  1.0000
  H   H50       1.0  0.976039609988517  0.8590841229913853  0.9658654446932096  1.0000
  H   H51       1.0  0.47603961023772046  0.6409158764191676  0.46586544494495863  1.0000
  H   H52       1.0  0.023960390287823756  0.14091587712176312  0.03413455521896514  1.0000
  H   H53       1.0  0.5069842804581025  0.5237112570948864  0.5846645155169283  1.0000
  H   H54       1.0  0.9930157195690352  0.02371125627914258  0.9153354841434977  1.0000
  H   H55       1.0  0.4930157198182384  0.47628874301826196  0.41533548439524653  1.0000
  H   H56       1.0  0.006984280707305745  0.9762887438340058  0.0846645157686772  1.0000
  H   H57       1.0  0.5092003199763151  0.2562547626512769  0.5948427715869619  1.0000
  H   H58       1.0  0.9907996802556057  0.7562547634670208  0.9051572284912471  1.0000
  H   H59       1.0  0.49079968030002596  0.7437452374618715  0.405157228325213  1.0000
  H   H60       1.0  0.009200319655553853  0.2437452366461277  0.0948427718408212  1.0000
  H   H61       1.0  0.4616786539539235  0.4152868355262715  0.9264980037473262  1.0000
  H   H62       1.0  0.03832134599251958  0.9152868348236761  0.5735019960284267  1.0000
  H   H63       1.0  0.5383213457524529  0.5847131645868769  0.07350199616695892  1.0000
  H   H64       1.0  0.9616786542838213  0.08471316528947234  0.42649800388374814  1.0000
  H   H65       1.0  0.4206668470847925  0.4069989835771155  0.8231638293562634  1.0000
  H   H66       1.0  0.07933315286165052  0.90699898287452  0.6768361704194894  1.0000
  H   H67       1.0  0.5793331526215839  0.593001016536033  0.17683617055802173  1.0000
  H   H68       1.0  0.9206668474146904  0.09300101723862836  0.3231638294926854  1.0000
  H   H69       1.0  0.17053254224635095  0.3641076934598243  0.8190816560665248  1.0000
  H   H70       1.0  0.32946745790487514  0.8641076927572289  0.6809183441270111  1.0000
  H   H71       1.0  0.8294674576648087  0.6358923066533241  0.18091834426554357  1.0000
  H   H72       1.0  0.6705325423714658  0.1358923073559195  0.31908165578516356  1.0000
  H   H73       1.0  0.2213005266746876  0.3684717087870847  0.9223597505313389  1.0000
  H   H74       1.0  0.27869947327175554  0.8684717096028286  0.577640249244414  1.0000
  H   H75       1.0  0.7786994736016534  0.6315282913260637  0.07764024938083598  1.0000
  H   H76       1.0  0.721300526434621  0.13152829051031986  0.42235975066987114  1.0000
  H   H77       1.0  0.19472067869057372  0.3706132868714101  0.7316378757949001  1.0000
  H   H78       1.0  0.30527932125586943  0.8706132876871538  0.7683621239808528  1.0000
  H   H79       1.0  0.8052793210158029  0.629386711723399  0.2683621241193851  1.0000
  H   H80       1.0  0.6947206790204715  0.12938671242599448  0.23163787593132204  1.0000
  H   H81       1.0  0.3747216093119852  0.38079856491122427  0.7385611831585923  1.0000
  H   H82       1.0  0.1252783908392408  0.8807985642086289  0.7614388170349436  1.0000
  H   H83       1.0  0.6252783905991742  0.6192014352019242  0.26143881717347595  1.0000
  H   H84       1.0  0.8747216094371001  0.11920143590451954  0.2385611828772312  1.0000
  H   H85       1.0  0.40620933749620597  0.3818100703960137  0.6587852315290793  1.0000
  H   H86       1.0  0.09379066265502013  0.8818100712117576  0.8412147686644567  1.0000
  H   H87       1.0  0.5937906624149536  0.6181899297171347  0.34121476880298907  1.0000
  H   H88       1.0  0.9062093376213208  0.11818992890139082  0.15878523124771807  1.0000
  H   H89       1.0  0.36699776712643223  0.3920680207090142  0.5551294987917486  1.0000
  H   H90       1.0  0.1330022330247938  0.8920680215247581  0.9448705014017873  1.0000
  H   H91       1.0  0.6330022327847273  0.6079319794041342  0.44487050154031976  1.0000
  H   H92       1.0  0.8669977666815828  0.10793197858839038  0.05512949851249783  1.0000
  H   H93       1.0  0.22154612400389317  0.39563187123320875  0.49666168646112174  1.0000
  H   H94       1.0  0.27845387574690367  0.8956318720489526  0.0033383132871293367  1.0000
  H   H95       1.0  0.7784538757024834  0.6043681288799397  0.5033383134531635  1.0000
  H   H96       1.0  0.7215461239594729  0.10436812806419582  0.9966616866271559  1.0000
  H   H97       1.0  0.15252765138901264  0.377393787757215  0.6435026108122412  1.0000
  H   H98       1.0  0.3474723487622135  0.8773937885729588  0.8564973893812948  1.0000
  H   H99       1.0  0.847472348317364  0.6226062123559335  0.356497389102044  1.0000
  H   H100      1.0  0.6525276517189104  0.1226062115401896  0.14350261094866307  1.0000
  H   H101      1.0  0.04900483119151359  0.3782705026720003  0.5538586802739711  1.0000
  H   H102      1.0  0.4509951687549296  0.878270503487744  0.9461413195017818  1.0000
  H   H103      1.0  0.9509951685148631  0.6217294959228088  0.44614131964031417  1.0000
  H   H104      1.0  0.5490048315214113  0.12172949662540429  0.05385868041039298  1.0000
  H   H105      1.0  0.07714157058608279  0.2593511939449989  0.5001319549180553  1.0000
  H   H106      1.0  0.42285842956514325  0.7593511947607428  0.9998680452754807  1.0000
  H   H107      1.0  0.9228584291202939  0.7406488061681495  0.4998680449962299  1.0000
  H   H108      1.0  0.5771415709159806  0.24064880535240565  0.00013195505447724594  1.0000
  H   H109      1.0  0.0772702065075848  0.5269806348248385  0.5041565866072044  1.0000
  H   H110      1.0  0.4227297936436412  0.0269806355274339  0.9958434135863315  1.0000
  H   H111      1.0  0.9227297937687562  0.47301936528830996  0.49584341330497045  1.0000
  H   H112      1.0  0.5772702062675182  0.9730193645857145  0.0041565867457367366  1.0000
  C   C1        1.0  0.897220581830629  0.39945784177816623  0.9367857119573798  1.0000
  C   C2        1.0  0.6027794178313275  0.8994578410755707  0.5632142881229397  1.0000
  C   C3        1.0  0.10277941787574763  0.6005421583349821  0.06321428795690556  1.0000
  C   C4        1.0  0.39722058187504916  0.10054215903757763  0.43678571179134557  1.0000
  C   C5        1.0  0.8650446498493557  0.3792670069646563  0.8796043932757207  1.0000
  C   C6        1.0  0.6349553498126007  0.8792670062620609  0.6203956068045986  1.0000
  C   C7        1.0  0.13495534985702096  0.6207329931484922  0.12039560663856444  1.0000
  C   C8        1.0  0.36504464989377583  0.1207329938510875  0.37960439310968663  1.0000
  C   C9        1.0  0.7804700038100267  0.3918280502217372  0.852692215389957  1.0000
  C   C10       1.0  0.719529996421894  0.8918280495191417  0.647307784688252  1.0000
  C   C11       1.0  0.21952999667109718  0.6081719498914111  0.147307784940001  1.0000
  C   C12       1.0  0.280470003854447  0.10817195059400658  0.35269221522392274  1.0000
  C   C13       1.0  0.7318494924948442  0.417187723430499  0.8867176271140764  1.0000
  C   C14       1.0  0.7681505077370764  0.9171877227279035  0.6132823729641325  1.0000
  C   C15       1.0  0.26815050721153233  0.5828122766826495  0.11328237280020878  1.0000
  C   C16       1.0  0.23184949253926446  0.08281227738524488  0.3867176269480423  1.0000
  C   C17       1.0  0.7674951099301225  0.4393420897904467  0.9437176698351908  1.0000
  C   C18       1.0  0.7325048900970152  0.9393420906061906  0.5562823298252352  1.0000
  C   C19       1.0  0.2325048903462185  0.5606579103227016  0.0562823300769841  1.0000
  C   C20       1.0  0.26749511017932565  0.06065790950695784  0.4437176700869397  1.0000
  C   C21       1.0  0.7414644909945723  0.3869658267799881  0.792765719118034  1.0000
  C   C22       1.0  0.7585355092373482  0.886965827595732  0.7072342809601749  1.0000
  C   C23       1.0  0.25853550928176855  0.6130341733331603  0.2072342807941408  1.0000
  C   C24       1.0  0.24146449103899265  0.11303417251741645  0.2927657189519998  1.0000
  C   C25       1.0  0.7810482757612476  0.3889081015764394  0.7549241830100347  1.0000
  C   C26       1.0  0.7189517244706732  0.8889081023921833  0.7450758170681743  1.0000
  C   C27       1.0  0.21895172414991199  0.611091898536709  0.24507581732203362  1.0000
  C   C28       1.0  0.28104827580566777  0.11109189772096514  0.25492418284400054  1.0000
  C   C29       1.0  0.7438552763974486  0.3939676316899032  0.6948911064601767  1.0000
  C   C30       1.0  0.7561447232645077  0.893967632505647  0.8051088936201427  1.0000
  C   C31       1.0  0.25614472351371087  0.6060323684232453  0.3051088938718917  1.0000
  C   C32       1.0  0.2438552764418689  0.10603236760750138  0.19489110629414244  1.0000
  C   C33       1.0  0.7958182911401416  0.40280415375967676  0.6626052988887418  1.0000
  C   C34       1.0  0.7041817090917791  0.9028041530570814  0.8373947011894672  1.0000
  C   C35       1.0  0.20418170913619937  0.5971958463534716  0.337394701023433  1.0000
  C   C36       1.0  0.2958182906145974  0.09719584553772777  0.1626052987248181  1.0000
  C   C37       1.0  0.7643745384954658  0.40748771421778884  0.6047571883993986  1.0000
  C   C38       1.0  0.7356254611664904  0.9074877135151934  0.8952428116809208  1.0000
  C   C39       1.0  0.23562546121091074  0.5925122858953595  0.3952428115148866  1.0000
  C   C40       1.0  0.264374538744669  0.09251228659795503  0.10475718865114751  1.0000
  C   C41       1.0  0.6804626799302652  0.4019294187593188  0.5780659030157761  1.0000
  C   C42       1.0  0.8195373203016555  0.9019294195750627  0.9219340970624329  1.0000
  C   C43       1.0  0.3195373203460757  0.5980705813538296  0.42193409689639866  1.0000
  C   C44       1.0  0.18046267997468546  0.09807058053808577  0.07806590284974195  1.0000
  C   C45       1.0  0.6267610232551932  0.39137524045186267  0.6089261124608065  1.0000
  C   C46       1.0  0.8732389764067631  0.8913752412676065  0.891073887619513  1.0000
  C   C47       1.0  0.37323897665596634  0.6086247596612858  0.3910738878712618  1.0000
  C   C48       1.0  0.12676102329961345  0.1086247588455419  0.10892611229477236  1.0000
  C   C49       1.0  0.6590997986698001  0.38925060399727657  0.6671225305145316  1.0000
  C   C50       1.0  0.8409002015621208  0.8892506048130204  0.8328774695636774  1.0000
  C   C51       1.0  0.34090020181132386  0.6107493945975326  0.33287746981542626  1.0000
  C   C52       1.0  0.1590997981442559  0.11074939530012799  0.16712253035060792  1.0000
  C   C53       1.0  0.53700819177857  0.38195498828904717  0.5791476179047836  1.0000
  C   C54       1.0  0.9629918078833863  0.8819549875864517  0.9208523821755357  1.0000
  C   C55       1.0  0.46299180813258967  0.6180450118241013  0.4208523824272848  1.0000
  C   C56       1.0  0.03700819182299015  0.11804501252669668  0.07914761773874944  1.0000
  C   C57       1.0  0.3983644001836268  0.3983244121304717  0.900348110418186  1.0000
  C   C58       1.0  0.1016355997628163  0.8983244129462156  0.5996518893575669  1.0000
  C   C59       1.0  0.6016356000927141  0.6016755879826767  0.09965188949398873  1.0000
  C   C60       1.0  0.8983643999435603  0.10167558716693287  0.4003481105567184  1.0000
  C   C61       1.0  0.37417252486291647  0.3956004249082821  0.8428293074589338  1.0000
  C   C62       1.0  0.12582747508352662  0.895600425724026  0.6571706923168191  1.0000
  C   C63       1.0  0.6258274754134244  0.604399573686527  0.15717069245324106  1.0000
  C   C64       1.0  0.8741725246228498  0.10439957438912238  0.3428293075974661  1.0000
  C   C65       1.0  0.2907963847016303  0.38103261691196927  0.8112909292522532  1.0000
  C   C66       1.0  0.20920361524481296  0.8810326177277131  0.6887090705234998  1.0000
  C   C67       1.0  0.7092036150047464  0.6189673832011792  0.18870907066203213  1.0000
  C   C68       1.0  0.790796385031528  0.11896738238543529  0.311290929388675  1.0000
  C   C69       1.0  0.2354787902513772  0.3734621240963064  0.8409162629425257  1.0000
  C   C70       1.0  0.26452120969506593  0.8734621233937109  0.6590837368332272  1.0000
  C   C71       1.0  0.7645212100249639  0.626537876016842  0.15908373696964906  1.0000
  C   C72       1.0  0.7354787900113106  0.12653787671943745  0.34091626308105805  1.0000
  C   C73       1.0  0.26308920975690625  0.37573979244906364  0.8986321682478117  1.0000
  C   C74       1.0  0.2369107901895368  0.8757397932648074  0.6013678315279412  1.0000
  C   C75       1.0  0.7369107899494702  0.6242602076640847  0.10136783166647344  1.0000
  C   C76       1.0  0.7630892100868041  0.12426020684834092  0.39863216838423365  1.0000
  C   C77       1.0  0.26051065050754724  0.37590266925915716  0.750904518331361  1.0000
  C   C78       1.0  0.23948934943889602  0.8759026685565617  0.7490954814443921  1.0000
  C   C79       1.0  0.7394893491988294  0.6240973308539912  0.24909548158292436  1.0000
  C   C80       1.0  0.760510650837445  0.1240973300382474  0.2509045184677828  1.0000
  C   C81       1.0  0.30886400643144263  0.37715059839065435  0.7183414785688433  1.0000
  C   C82       1.0  0.19113599351500057  0.8771505992063982  0.7816585212069096  1.0000
  C   C83       1.0  0.691135993274934  0.6228494017224941  0.28165852134544195  1.0000
  C   C84       1.0  0.8088640067613404  0.12284940090675021  0.21834147870526519  1.0000
  C   C85       1.0  0.2822933474306382  0.3778069339499539  0.6582384919081227  1.0000
  C   C86       1.0  0.21770665272058787  0.8778069347656978  0.8417615082854133  1.0000
  C   C87       1.0  0.7177066522757383  0.6221930661631945  0.3417615080061625  1.0000
  C   C88       1.0  0.782293347760536  0.12219306534745066  0.1582384920445446  1.0000
  C   C89       1.0  0.34265251311731537  0.381272895622121  0.6325476332673892  1.0000
  C   C90       1.0  0.1573474868291277  0.8812728964378649  0.8674523665083638  1.0000
  C   C91       1.0  0.6573474871590255  0.6187271044910274  0.36745236664478564  1.0000
  C   C92       1.0  0.8426525128772488  0.11872710367528354  0.13254763340592146  1.0000
  C   C93       1.0  0.32050052347612373  0.38716524394330853  0.5747464009203649  1.0000
  C   C94       1.0  0.1794994764703194  0.8871652432407131  0.925253598855388  1.0000
  C   C95       1.0  0.6794994762302529  0.61283475616984  0.4252535989939204  1.0000
  C   C96       1.0  0.8205005238060215  0.1128347568724353  0.07474640105678675  1.0000
  C   C97       1.0  0.2388002861969057  0.38932914768847693  0.5420734720478178  1.0000
  C   C98       1.0  0.2611997137495375  0.8893291469858816  0.9579265277279353  1.0000
  C   C99       1.0  0.7611997140794352  0.6106708524246715  0.4579265278643571  1.0000
  C   C100      1.0  0.7388002859568391  0.1106708531272669  0.04207347218635008  1.0000
  C   C101      1.0  0.17703063378771802  0.38449425435385337  0.5663477650510563  1.0000
  C   C102      1.0  0.3229693661587251  0.884494253651258  0.9336522347246966  1.0000
  C   C103      1.0  0.8229693664886228  0.6155057457592951  0.43365223486111854  1.0000
  C   C104      1.0  0.6770306335476514  0.11550574646189044  0.06634776518958865  1.0000
  C   C105      1.0  0.1996247699766617  0.3791879257813492  0.6242595761977582  1.0000
  C   C106      1.0  0.3003752301745644  0.879187926597093  0.875740423995778  1.0000
  C   C107      1.0  0.8003752297297149  0.6208120743317992  0.3757404237165272  1.0000
  C   C108      1.0  0.6996247701017765  0.1208120735160554  0.12425957591639687  1.0000
  C   C109      1.0  0.09020848050204035  0.3877743500408165  0.529609609143071  1.0000
  C   C110      1.0  0.4097915196491857  0.8877743493382211  0.970390391050465  1.0000
  C   C111      1.0  0.9097915197743006  0.6122256500723319  0.47039039076910394  1.0000
  C   C112      1.0  0.5902084802619737  0.11222565077492733  0.029609609281603215  1.0000
  N   N1        1.0  0.8486286638351143  0.4302845643277413  0.9675619528630153  1.0000
  N   N2        1.0  0.6513713363968066  0.9302845636251459  0.5324380472151938  1.0000
  N   N3        1.0  0.15137133664600977  0.5697154357854071  0.03243804746694274  1.0000
  N   N4        1.0  0.34862866330957  0.06971543648800252  0.46756195269909145  1.0000
  N   N5        1.0  0.3430499174189898  0.38694820948926706  0.9267119830035574  1.0000
  N   N6        1.0  0.15695008273223643  0.8869482087866717  0.5732880171899788  1.0000
  N   N7        1.0  0.6569500824921698  0.6130517906238814  0.07328801732851109  1.0000
  N   N8        1.0  0.8430499175441045  0.11305179132647675  0.42671198272219607  1.0000
  O   O1        1.0  0.516237000109156  0.03895123459515576  0.8358348263157965  1.0000
  O   O2        1.0  0.9837629999179818  0.5389512338925603  0.6641651733446294  1.0000
  O   O3        1.0  0.483763000167185  0.9610487655179927  0.16416517359637833  1.0000
  O   O4        1.0  0.01623700035835911  0.4610487662205881  0.3358348265675454  1.0000
  O   O5        1.0  0.4785397215924026  0.8920527986550891  0.8451012633614257  1.0000
  O   O6        1.0  0.021460278558823546  0.3920527993576845  0.6548987368321103  1.0000
  O   O7        1.0  0.521460278113974  0.10794720145805932  0.15489873655285955  1.0000
  O   O8        1.0  0.9785397217175175  0.6079472007554639  0.34510126308006445  1.0000
  O   O9        1.0  0.45725993953413974  0.8101221358655015  0.7603640291609742  1.0000
  O   O10       1.0  0.04274006061708646  0.3101221365680969  0.739635971032562  1.0000
  O   O11       1.0  0.5427400607422012  0.18987786272930768  0.2396359707512006  1.0000
  O   O12       1.0  0.9572599390892903  0.6898778635450515  0.26036402888172344  1.0000
  O   O13       1.0  0.004346664291440946  0.46483295055008983  0.7423479272115698  1.0000
  O   O14       1.0  0.4956533358597851  0.9648329498474945  0.7576520729819661  1.0000
  O   O15       1.0  0.9956533354149355  0.5351670495630586  0.2576520727027154  1.0000
  O   O16       1.0  0.5043466644165557  0.03516705026565402  0.24234792693020862  1.0000
  Cl  Cl1       1.0  0.5911233248118128  0.6154478362989745  0.9488895189026337  1.0000
  Cl  Cl2       1.0  0.9088766754201079  0.11544783548323062  0.5511104811755752  1.0000
  Cl  Cl3       1.0  0.40887667546452805  0.38455216381417395  0.05111048100954096  1.0000
  Cl  Cl4       1.0  0.09112332485623309  0.8845521631115786  0.44888951873659966  1.0000
  Cl  Cl5       1.0  0.9195922385180301  0.6228250323769737  0.07906107906069278  1.0000
  Cl  Cl6       1.0  0.5804077615182442  0.1228250315612299  0.4209389209900144  1.0000
  Cl  Cl7       1.0  0.08040776175831088  0.3771749677361747  0.920938920851482  1.0000
  Cl  Cl8       1.0  0.4195922381881323  0.8771749685519185  0.5790610789242709  1.0000
  Cl  Cl9       1.0  0.5252139239201359  0.47984262868173067  0.766861910242346  1.0000
  Cl  Cl10      1.0  0.9747860757418204  0.9798426279791351  0.7331380898379735  1.0000
  Cl  Cl11      1.0  0.4747860757862406  0.5201573714314177  0.23313808967193922  1.0000
  Cl  Cl12      1.0  0.025213923964556184  0.020157372134013172  0.2668619100763118  1.0000
