data_image0
_chemical_formula_structural       H28C56N8S8Br4
_chemical_formula_sum              "H28 C56 N8 S8 Br4"
_cell_length_a       7.6045860780414625
_cell_length_b       10.206972078089281
_cell_length_c       17.385738181479173
_cell_angle_alpha    76.7754373469515
_cell_angle_beta     83.37525085390713
_cell_angle_gamma    89.64615672841067

_space_group_name_H-M_alt    "P 1"
_space_group_IT_number       1

loop_
  _space_group_symop_operation_xyz
  'x, y, z'

loop_
  _atom_site_type_symbol
  _atom_site_label
  _atom_site_symmetry_multiplicity
  _atom_site_fract_x
  _atom_site_fract_y
  _atom_site_fract_z
  _atom_site_occupancy
  H   H1        1.0  0.3330089106280941  0.6452607323354577  0.45328676958587566  1.0000
  H   H2        1.0  0.6669910893589954  0.3547392675997634  0.5467132302696648  1.0000
  H   H3        1.0  0.710770948678074  0.8744606711155559  0.2098011908038636  1.0000
  H   H4        1.0  0.28922905130127097  0.1255393298007942  0.7901988090480564  1.0000
  H   H5        1.0  0.04447991931511132  0.42214695899642396  0.3448745096925284  1.0000
  H   H6        1.0  0.9555200805207521  0.57785304071365  0.6551254907579417  1.0000
  H   H7        1.0  0.8587354180433293  0.47896478181334895  0.45720992413789363  1.0000
  H   H8        1.0  0.14126458179253418  0.5210352178967249  0.5427900763125766  1.0000
  H   H9        1.0  0.8159875842367934  0.7133089289164177  0.47090622565102497  1.0000
  H   H10       1.0  0.18401241575029637  0.2866910710188033  0.5290937742045155  1.0000
  H   H11       1.0  0.8940545141362608  0.9765934652744901  0.40504415032244906  1.0000
  H   H12       1.0  0.10594548585082883  0.023406534660730817  0.5949558495330914  1.0000
  H   H13       1.0  0.04285586363387195  0.14204556023915774  0.2919956190801007  1.0000
  H   H14       1.0  0.9571441363532176  0.8579544396960631  0.7080043807754398  1.0000
  H   H15       1.0  0.22579606716853304  0.073108235695114  0.1793842977575769  1.0000
  H   H16       1.0  0.7742039328185566  0.9268917642401069  0.8206157020979635  1.0000
  H   H17       1.0  0.15268087764506583  0.29837061817734783  0.13428002502697015  1.0000
  H   H18       1.0  0.8473191223420238  0.7016293817578733  0.8657199748285702  1.0000
  H   H19       1.0  0.9880485510016705  0.40844287275816693  0.08964141051483071  1.0000
  H   H20       1.0  0.011951448985419055  0.5915571271770539  0.9103585893407098  1.0000
  H   H21       1.0  0.08292156251268  0.2833152820601903  0.04144197021187787  1.0000
  H   H22       1.0  0.9170784373154387  0.7166847186310129  0.9585580302349718  1.0000
  H   H23       1.0  0.26507317101521566  0.007211089247050212  0.9382147062577627  1.0000
  H   H24       1.0  0.7349268288206477  0.9927889104630236  0.06178529419270752  1.0000
  H   H25       1.0  0.08857619623828818  0.8848657477116197  0.9755058719080246  1.0000
  H   H26       1.0  0.911423803597575  0.11513425199845412  0.024494128542445624  1.0000
  H   H27       1.0  0.15955603491127995  0.9330376002371751  0.8707898557776018  1.0000
  H   H28       1.0  0.8404439650758097  0.06696239969804584  0.12921014407793854  1.0000
  C   C1        1.0  0.6109906642453904  0.6806255514182572  0.2801011460240172  1.0000
  C   C2        1.0  0.3890093357416992  0.3193744485169637  0.7198988538315232  1.0000
  C   C3        1.0  0.5014321136499018  0.619110438811282  0.3520004941586408  1.0000
  C   C4        1.0  0.4985678861859615  0.38088956089879183  0.6479995062918293  1.0000
  C   C5        1.0  0.41563799161013054  0.6958164793307743  0.39948013461845366  1.0000
  C   C6        1.0  0.5843620083769591  0.30418352060444676  0.6005198652370868  1.0000
  C   C7        1.0  0.43159883501877466  0.8390354221479026  0.3827640741730283  1.0000
  C   C8        1.0  0.568401164968315  0.16096457778731837  0.6172359256825121  1.0000
  C   C9        1.0  0.5434418085120958  0.9008289373915079  0.3112405915863755  1.0000
  C   C10       1.0  0.45655819132376757  0.09917106231856594  0.6887594088640946  1.0000
  C   C11       1.0  0.6263516637332676  0.8243351537459538  0.2632017156438534  1.0000
  C   C12       1.0  0.373648336253822  0.1756648461892671  0.736798284211687  1.0000
  C   C13       1.0  0.7039941054960245  0.6126332076131176  0.2259460885552309  1.0000
  C   C14       1.0  0.2960058943398388  0.38736679209695624  0.7740539118952393  1.0000
  C   C15       1.0  0.34022378570164574  0.9069077866446091  0.43704578983611675  1.0000
  C   C16       1.0  0.6597762141264728  0.09309221404659408  0.5629542106107329  1.0000
  C   C17       1.0  0.728127479194672  0.4722358697432095  0.23522015469434412  1.0000
  C   C18       1.0  0.2718725206334465  0.5277641309479938  0.7647798457525056  1.0000
  C   C19       1.0  0.8060452750782556  0.6870381938760959  0.15618061005308564  1.0000
  C   C20       1.0  0.1939547249088341  0.31296180605912516  0.8438193898024547  1.0000
  C   C21       1.0  0.22978732329248416  0.8344956879035086  0.5045621809131464  1.0000
  C   C22       1.0  0.7702126766946055  0.1655043120317124  0.4954378189423939  1.0000
  C   C23       1.0  0.34919442799387757  0.04513534564667399  0.4365694181035711  1.0000
  C   C24       1.0  0.6508055719932121  0.9548646542885469  0.5634305817519694  1.0000
  C   C25       1.0  0.11482301222306403  0.631880439008757  0.28924713348138553  1.0000
  C   C26       1.0  0.885176987756281  0.3681195619075933  0.7107528663705345  1.0000
  C   C27       1.0  0.031837616934341825  0.5276148169744828  0.3472810427963621  1.0000
  C   C28       1.0  0.9681623830527477  0.47238518296073834  0.6527189570591784  1.0000
  C   C29       1.0  0.9239378015800639  0.5612524583518673  0.4119458701408849  1.0000
  C   C30       1.0  0.07606219824805475  0.43874754233933594  0.5880541303059648  1.0000
  C   C31       1.0  0.8991378376472062  0.6926753143766691  0.41975929372078585  1.0000
  C   C32       1.0  0.1008621623398834  0.3073246855585518  0.5802407061347545  1.0000
  C   C33       1.0  0.9716303878718623  0.9416179814813594  0.357282699097103  1.0000
  C   C34       1.0  0.028369612115227368  0.05838201845386152  0.6427173007584375  1.0000
  C   C35       1.0  0.05745069245629746  0.03534662424158546  0.29284321389748214  1.0000
  C   C36       1.0  0.9425493075307924  0.9646533756936353  0.7071567859580583  1.0000
  C   C37       1.0  0.159899109772851  0.9968428487354989  0.22863114485913288  1.0000
  C   C38       1.0  0.8401008902142387  0.0031571511997220245  0.7713688549964075  1.0000
  C   C39       1.0  0.17580931396921531  0.8603214419228898  0.23082951401512133  1.0000
  C   C40       1.0  0.824190685866648  0.1396785577871841  0.7691704864353488  1.0000
  C   C41       1.0  0.08660404950163646  0.7662114427048996  0.2967440146491678  1.0000
  C   C42       1.0  0.9133959504854531  0.23378855723032133  0.7032559852063727  1.0000
  C   C43       1.0  0.9820789225469112  0.8014483302110239  0.36025973730386057  1.0000
  C   C44       1.0  0.017921077440178373  0.19855166972419708  0.6397402625516799  1.0000
  C   C45       1.0  0.2329873066731411  0.6433255265484107  0.21553984375597585  1.0000
  C   C46       1.0  0.7670126931627222  0.35667447316166323  0.7844601566944943  1.0000
  C   C47       1.0  0.26729873246292435  0.7799584547845225  0.18016897425381154  1.0000
  C   C48       1.0  0.7327012673729392  0.2200415449255513  0.8198310261966586  1.0000
  C   C49       1.0  0.313253730147957  0.5824170403111024  0.07297383995781583  1.0000
  C   C50       1.0  0.6867462698391325  0.41758295962411845  0.9270261598977246  1.0000
  C   C51       1.0  0.3466102734284377  0.7153642804854952  0.03790881904298597  1.0000
  C   C52       1.0  0.653389726558652  0.2846357194497257  0.9620911808125545  1.0000
  C   C53       1.0  0.10869819560673992  0.3534496792571597  0.07833896179230965  1.0000
  C   C54       1.0  0.8913018043803497  0.6465503206780613  0.9216610380632307  1.0000
  C   C55       1.0  0.20266467188613507  0.9155392878148672  0.9303362130669441  1.0000
  C   C56       1.0  0.7973353279497284  0.08446071189520667  0.06966378738352597  1.0000
  N   N1        1.0  0.7680255908501386  0.3614852628228401  0.23435257789569036  1.0000
  N   N2        1.0  0.23197440912920636  0.6385147380935102  0.7656474219562296  1.0000
  N   N3        1.0  0.8950574692172881  0.7447521763355542  0.09904394384083356  1.0000
  N   N4        1.0  0.10494253076980152  0.2552478235996667  0.9009560560147069  1.0000
  N   N5        1.0  0.13651980769088312  0.7792011069315  0.5608648801830056  1.0000
  N   N6        1.0  0.8634801922962064  0.22079889300372108  0.43913511967253477  1.0000
  N   N7        1.0  0.34474061934935113  0.1541634010685837  0.4476960967854221  1.0000
  N   N8        1.0  0.6552593806377386  0.8458365988666374  0.5523039030701182  1.0000
  S   S1        1.0  0.3197342378215541  0.5140629436762943  0.1756438589036949  1.0000
  S   S2        1.0  0.6802657620143093  0.4859370560337794  0.8243561415467753  1.0000
  S   S3        1.0  0.39466189975111343  0.8373850861598295  0.0901101197998631  1.0000
  S   S4        1.0  0.6053381002359761  0.16261491377539156  0.9098898800556773  1.0000
  S   S5        1.0  0.2805001387323254  0.46487078555054556  0.01718128997898865  1.0000
  S   S6        1.0  0.719499862570202  0.5351292143857527  0.9828187098748213  1.0000
  S   S7        1.0  0.35654766378150127  0.7772208992656533  0.9352504672143898  1.0000
  S   S8        1.0  0.6434523360543621  0.22277910044442065  0.06474953323608029  1.0000
  Br  Br1       1.0  0.4633799476713398  0.4308037151578017  0.3856115088946179  1.0000
  Br  Br2       1.0  0.5366200523157498  0.5691962847774193  0.6143884909609225  1.0000
  Br  Br3       1.0  0.5887641233830484  0.08884460913855516  0.2811469314709915  1.0000
  Br  Br4       1.0  0.41123587660404126  0.911155390796666  0.7188530683845489  1.0000
