data_image0
_chemical_formula_structural       H98C104N16O20P6
_chemical_formula_sum              "H98 C104 N16 O20 P6"
_cell_length_a       11.52598472612327
_cell_length_b       14.007447402641962
_cell_length_c       15.222441818455085
_cell_angle_alpha    92.17462819927663
_cell_angle_beta     89.91363598904307
_cell_angle_gamma    96.56934495293129

_space_group_name_H-M_alt    "P 1"
_space_group_IT_number       1

loop_
  _space_group_symop_operation_xyz
  'x, y, z'

loop_
  _atom_site_type_symbol
  _atom_site_label
  _atom_site_symmetry_multiplicity
  _atom_site_fract_x
  _atom_site_fract_y
  _atom_site_fract_z
  _atom_site_occupancy
  H   H1        1.0  0.6341561799390306  0.14288731000870722  0.4957424142044217  1.0000
  H   H2        1.0  0.3658438202343003  0.8571126900982106  0.5042575852174895  1.0000
  H   H3        1.0  0.7950712821989341  0.044911723308985296  0.5933314511919818  1.0000
  H   H4        1.0  0.204928717979475  0.9550882768224549  0.40666854888732157  1.0000
  H   H5        1.0  0.8000204886589924  0.7725020066275737  0.4061408905884647  1.0000
  H   H6        1.0  0.19997951151941643  0.22749799350386635  0.5938591094908386  1.0000
  H   H7        1.0  0.983528618062083  0.524621790641376  0.330140186853856  1.0000
  H   H8        1.0  0.016471382116325914  0.4753782094900642  0.6698598132254474  1.0000
  H   H9        1.0  0.9536277110061981  0.09905984942271084  0.7421460974625231  1.0000
  H   H10       1.0  0.04637228917221068  0.9009401507087293  0.2578539026167801  1.0000
  H   H11       1.0  0.6332132072086316  0.419529485183782  0.31146614655705923  1.0000
  H   H12       1.0  0.36678679296977734  0.5804705149476581  0.6885338535222442  1.0000
  H   H13       1.0  0.14214041291246302  0.8174395466384342  0.6131268296691117  1.0000
  H   H14       1.0  0.8578595872659459  0.18256045349300606  0.38687317041019165  1.0000
  H   H15       1.0  0.2609288974762212  0.1671898964454646  0.2854951510518928  1.0000
  H   H16       1.0  0.7390711027021878  0.8328101036859755  0.7145048490274105  1.0000
  H   H17       1.0  0.5151594400446106  0.8947806831219822  0.2842420377149077  1.0000
  H   H18       1.0  0.4848405592607035  0.10521931698190977  0.7157579617092484  1.0000
  H   H19       1.0  0.5410433587292701  0.3299455099055421  0.5144149555054611  1.0000
  H   H20       1.0  0.4589566414491389  0.6700544902258981  0.48558504457384216  1.0000
  H   H21       1.0  0.18525158132494984  0.7675147233093434  0.1337147952623433  1.0000
  H   H22       1.0  0.8147484179854423  0.23248527681907097  0.8662852048192048  1.0000
  H   H23       1.0  0.09851279266699749  0.34368345088048  0.06203326306706749  1.0000
  H   H24       1.0  0.9014872075114115  0.6563165492509602  0.9379667370122358  1.0000
  H   H25       1.0  0.08222897348472949  0.5187243780791552  0.05766838149307141  1.0000
  H   H26       1.0  0.9177710266936794  0.48127562205228497  0.9423316185862319  1.0000
  H   H27       1.0  0.4814022238374516  0.40061329210877444  0.1110228655649023  1.0000
  H   H28       1.0  0.5185977754729404  0.59938670801964  0.8889771345166458  1.0000
  H   H29       1.0  0.24614511338496028  0.3359593179709234  0.34034364118751526  1.0000
  H   H30       1.0  0.7538548867934487  0.6640406821605168  0.6596563588917882  1.0000
  H   H31       1.0  0.13843296672510538  0.05356495072091512  0.8045517188984302  1.0000
  H   H32       1.0  0.8615670334482254  0.9464350493860025  0.19544828052348098  1.0000
  H   H33       1.0  0.852458222887667  0.39060001690061696  0.1153897553010032  1.0000
  H   H34       1.0  0.147541777194573  0.6093999825121034  0.8846102447757098  1.0000
  H   H35       1.0  0.23109603657192837  0.916025660137988  0.7412720105777646  1.0000
  H   H36       1.0  0.7689039635103116  0.08397433927473232  0.2587279894989484  1.0000
  H   H37       1.0  0.8204848341002785  0.6391954840825305  0.4790878488031898  1.0000
  H   H38       1.0  0.1795151652101138  0.360804516045884  0.5209121512783583  1.0000
  H   H39       1.0  0.38627786995344787  0.4160280428811123  0.4501216253992616  1.0000
  H   H40       1.0  0.6137221301287921  0.5839719565316082  0.5498783746774515  1.0000
  H   H41       1.0  0.8778892459624698  0.8666242417841108  0.026179717201815045  1.0000
  H   H42       1.0  0.12211075411977028  0.13337575762860965  0.9738202828748979  1.0000
  H   H43       1.0  0.6241107729342242  0.18032624876284167  0.2535660879154403  1.0000
  H   H44       1.0  0.3758892272441848  0.8196737513685984  0.746433912163863  1.0000
  H   H45       1.0  0.06116011732927146  0.25815824758417033  0.20285588956275596  1.0000
  H   H46       1.0  0.9388398828491376  0.7418417525472698  0.7971441105165473  1.0000
  H   H47       1.0  0.9932147883402784  0.9292705946080098  0.8969797542152117  1.0000
  H   H48       1.0  0.006785211736883438  0.07072940478018826  0.10302024520410936  1.0000
  H   H49       1.0  0.9171747387999042  0.5145899366631201  0.5538158240631377  1.0000
  H   H50       1.0  0.08282526137850478  0.48541006346831994  0.44618417601616567  1.0000
  H   H51       1.0  0.7421796650891475  0.7336626283562709  0.8840543819205142  1.0000
  H   H52       1.0  0.25782033411999766  0.26633737102890126  0.1159456175010515  1.0000
  H   H53       1.0  0.20521913304981668  0.9110371085464798  0.8876117074811152  1.0000
  H   H54       1.0  0.7947808671285923  0.0889628915849604  0.11238829259818807  1.0000
  H   H55       1.0  0.8755614665590021  0.34274530140592  0.5069183231087458  1.0000
  H   H56       1.0  0.12443853361940681  0.6572546987255202  0.4930816769705575  1.0000
  H   H57       1.0  0.7297336998327574  0.9100410631595013  0.8609004811895811  1.0000
  H   H58       1.0  0.2702663003456516  0.08995893697193881  0.13909951888972227  1.0000
  H   H59       1.0  0.003687551906781287  0.3488492157717236  0.33672257339213385  1.0000
  H   H60       1.0  0.9963124482716278  0.6511507843597164  0.6632774266871694  1.0000
  H   H61       1.0  0.5533587623187388  0.7557289094164494  0.1261655146336508  1.0000
  H   H62       1.0  0.44664123775842296  0.24427108997174846  0.8738344847856702  1.0000
  H   H63       1.0  0.731721191568195  0.2948523036648189  0.3847589016104343  1.0000
  H   H64       1.0  0.26827880861021386  0.7051476964666212  0.6152410984688691  1.0000
  H   H65       1.0  0.8257056468527667  0.24842003942550178  0.20945801248612947  1.0000
  H   H66       1.0  0.17429435245254724  0.7515799606783902  0.7905419869380267  1.0000
  H   H67       1.0  0.6278455843631225  0.004770049439161937  0.967725952294721  1.0000
  H   H68       1.0  0.37215441494726975  0.9952299506892525  0.03227404778682709  1.0000
  H   H69       1.0  0.3012936313449366  0.8285077129725806  0.004140519992999568  1.0000
  H   H70       1.0  0.6987063688283941  0.17149228713433717  0.9958594794289117  1.0000
  H   H71       1.0  0.539364137031332  0.9284829243032189  0.10334000519275234  1.0000
  H   H72       1.0  0.460635863147077  0.07151707582822116  0.896659994886551  1.0000
  H   H73       1.0  0.45357056083580644  0.25708991690559513  0.20524962094264118  1.0000
  H   H74       1.0  0.5464294393426026  0.742910083225845  0.7947503791366622  1.0000
  H   H75       1.0  0.8247539276046894  0.20214789732559832  0.5893576539854274  1.0000
  H   H76       1.0  0.17524607247755078  0.7978521020871221  0.4106423460912856  1.0000
  H   H77       1.0  0.7072421301790359  0.20378595223593757  0.6398990665176814  1.0000
  H   H78       1.0  0.292757869903204  0.7962140471767828  0.3601009335590316  1.0000
  H   H79       1.0  0.43615843951154126  0.5576544658434631  0.30389566030339105  1.0000
  H   H80       1.0  0.5638415606668677  0.44234553428797696  0.6961043397759124  1.0000
  H   H81       1.0  0.2884814000828485  0.5138254514606546  0.28424352842283424  1.0000
  H   H82       1.0  0.7115186000955603  0.48617454867078547  0.7157564716564689  1.0000
  H   H83       1.0  0.3242366140543781  0.6062360159017589  0.36810217034889114  1.0000
  H   H84       1.0  0.6757633860278619  0.3937639835109614  0.6318978297278218  1.0000
  H   H85       1.0  0.27677187005301346  0.5668385763925526  0.12391092605320188  1.0000
  H   H86       1.0  0.7232281301253954  0.4331614237388875  0.8760890740261014  1.0000
  H   H87       1.0  0.43009232609633863  0.5826362926933659  0.1326672128869837  1.0000
  H   H88       1.0  0.5699076740820702  0.41736370743807416  0.8673327871923197  1.0000
  H   H89       1.0  0.35504223775984234  0.6795154726729218  0.09608009144887185  1.0000
  H   H90       1.0  0.6449577624185666  0.32048452745851835  0.9039199086304315  1.0000
  H   H91       1.0  0.9888556876038519  0.791715154928591  0.45601462181799807  1.0000
  H   H92       1.0  0.011144312574557084  0.2082848452028492  0.5439853782613053  1.0000
  H   H93       1.0  0.9806134809193121  0.7336412376214557  0.3630805749013502  1.0000
  H   H94       1.0  0.0193865192590971  0.26635876250998436  0.6369194251779531  1.0000
  H   H95       1.0  0.37736442721639085  0.9835186604939892  0.2560424881635626  1.0000
  H   H96       1.0  0.6226355720940014  0.01648133963442515  0.7439575119179856  1.0000
  H   H97       1.0  0.3301940336595338  0.879328015067583  0.2189995744224409  1.0000
  H   H98       1.0  0.6698059665188753  0.12067198506385728  0.7810004256568626  1.0000
  C   C1        1.0  0.6546886804090137  0.8237116518435171  0.338420747413152  1.0000
  C   C2        1.0  0.3453113197693952  0.17628834828792297  0.6615792526661514  1.0000
  C   C3        1.0  0.536333008071078  0.056045824295618406  0.39581782477120675  1.0000
  C   C4        1.0  0.46366699123931426  0.9439541758327961  0.6041821753103415  1.0000
  C   C5        1.0  0.8462694757653245  0.9200661506060341  0.5263577496659927  1.0000
  C   C6        1.0  0.15373052354506783  0.07993384952238027  0.4736422504155555  1.0000
  C   C7        1.0  0.026322826059716694  0.8129249684725479  0.08451638519799548  1.0000
  C   C8        1.0  0.9736771741186921  0.18707503165889222  0.9154836148813079  1.0000
  C   C9        1.0  0.742745304298677  0.8282994314647256  0.40132676612582247  1.0000
  C   C10       1.0  0.25725469578356297  0.17170056794799482  0.5986732339508904  1.0000
  C   C11       1.0  0.034902374974676555  0.5302342775710552  0.1943396461479484  1.0000
  C   C12       1.0  0.9650976252037324  0.4697657225603849  0.8056603539313549  1.0000
  C   C13       1.0  0.011416644904103624  0.48410706087427563  0.27297320128578334  1.0000
  C   C14       1.0  0.9885833552743054  0.5158929392571646  0.72702679879352  1.0000
  C   C15       1.0  0.7227145548071517  0.5349771240265448  0.3916957655801706  1.0000
  C   C16       1.0  0.27728544450324055  0.4650228761018696  0.6083042345013776  1.0000
  C   C17       1.0  0.9936167557586499  0.03805922801514892  0.7147934663834069  1.0000
  C   C18       1.0  0.006383244323590047  0.9619407713975714  0.285206533693306  1.0000
  C   C19       1.0  0.6965436561208864  0.4393226681110812  0.3639679963791077  1.0000
  C   C20       1.0  0.3034563431844276  0.5606773319928108  0.6360320030450484  1.0000
  C   C21       1.0  0.10036403246967829  0.877215582499298  0.6419245162412943  1.0000
  C   C22       1.0  0.8996359677087307  0.12278441763214228  0.3580754838380091  1.0000
  C   C23       1.0  0.99720273203686  0.9032741094997342  0.6059127263123003  1.0000
  C   C24       1.0  0.0027972681415490237  0.09672589063170602  0.394087273767003  1.0000
  C   C25       1.0  0.7556192325847242  0.9088291782313496  0.4591316096582964  1.0000
  C   C26       1.0  0.24438076759368485  0.09117082190009047  0.540868390421007  1.0000
  C   C27       1.0  0.9456500357659303  0.9835850554025694  0.6423756473995732  1.0000
  C   C28       1.0  0.05434996354446206  0.01641494472584507  0.357624352681975  1.0000
  C   C29       1.0  0.6489405225819254  0.7363450866151635  0.006148581773067864  1.0000
  C   C30       1.0  0.3510594775964836  0.2636549135162767  0.9938514183062355  1.0000
  C   C31       1.0  0.49048985402569306  0.20133006199545897  0.4324332290001906  1.0000
  C   C32       1.0  0.509510146152716  0.7986699381359812  0.5675667710791128  1.0000
  C   C33       1.0  0.3226715779661082  0.20314410274625075  0.3337380152237875  1.0000
  C   C34       1.0  0.6773284222072226  0.796855897360667  0.6662619841981239  1.0000
  C   C35       1.0  0.5830119189934319  0.8970276340859933  0.3342510319711327  1.0000
  C   C36       1.0  0.4169880811849771  0.10297236604544704  0.6657489681081706  1.0000
  C   C37       1.0  0.4818053964941666  0.2949677094319478  0.46440060948332196  1.0000
  C   C38       1.0  0.5181946036842423  0.7050322906994925  0.5355993905959814  1.0000
  C   C39       1.0  0.4131811399928216  0.15555122276526187  0.3665028119603367  1.0000
  C   C40       1.0  0.5868188601805092  0.8444487773416559  0.6334971874615747  1.0000
  C   C41       1.0  0.1446426988488179  0.8017733794600178  0.08069997130785758  1.0000
  C   C42       1.0  0.8553573013295911  0.19822662067142233  0.9193000287714457  1.0000
  C   C43       1.0  0.07628678958052315  0.38249824148564926  0.12193673216738679  1.0000
  C   C44       1.0  0.923713210597886  0.6175017586457908  0.8780632679119165  1.0000
  C   C45       1.0  0.06676451877023414  0.4808616261275104  0.11852909410951556  1.0000
  C   C46       1.0  0.9332354814081749  0.5191383740039298  0.8814709059697877  1.0000
  C   C47       1.0  0.5555048018956412  0.36644339097192624  0.1335982644499435  1.0000
  C   C48       1.0  0.44449519818152056  0.6335566084162717  0.8664017349693774  1.0000
  C   C49       1.0  0.31517430499121935  0.29687042590699597  0.36496387786603673  1.0000
  C   C50       1.0  0.684825694319173  0.7031295742214185  0.6350361222155113  1.0000
  C   C51       1.0  0.6035340121107866  0.9740095788650384  0.395749026810268  1.0000
  C   C52       1.0  0.39646598806762234  0.025990421266401716  0.6042509732690352  1.0000
  C   C53       1.0  0.6680965387453862  0.40227122238592367  0.10920088091835119  1.0000
  C   C54       1.0  0.33190346143302285  0.5977287777455165  0.8907991191609521  1.0000
  C   C55       1.0  0.09670741521707653  0.011595158527210953  0.7491259736704817  1.0000
  C   C56       1.0  0.9032925839971466  0.9884048408824836  0.25087402640847617  1.0000
  C   C57       1.0  0.7656789381518322  0.36103172723545657  0.13584399383934334  1.0000
  C   C58       1.0  0.23432106202657688  0.6389682728959837  0.86415600623996  1.0000
  C   C59       1.0  0.14912973578829178  0.9327033345385459  0.7132465259357512  1.0000
  C   C60       1.0  0.850870264390117  0.06729666559289421  0.2867534741435521  1.0000
  C   C61       1.0  0.8024304114649358  0.5636158214241347  0.45890918330050934  1.0000
  C   C62       1.0  0.19756958861730423  0.4363841779885857  0.5410908167762036  1.0000
  C   C63       1.0  0.39457778116848147  0.3422659140471504  0.4281947339004945  1.0000
  C   C64       1.0  0.6054222190099275  0.6577340860842897  0.5718052661788089  1.0000
  C   C65       1.0  0.9702721415678879  0.8582763042909742  0.019946043433790105  1.0000
  C   C66       1.0  0.02972785861052109  0.14172369584046599  0.9800539566455132  1.0000
  C   C67       1.0  0.6375224282806385  0.24330817913958164  0.21311383918950913  1.0000
  C   C68       1.0  0.36247757102975375  0.7566918209888328  0.786886160892039  1.0000
  C   C69       1.0  0.05502669343952687  0.33516844399039214  0.2005919010540648  1.0000
  C   C70       1.0  0.9449733067388821  0.664831556141048  0.7994080990252386  1.0000
  C   C71       1.0  0.035379520149575586  0.893067662093565  0.9481932001451758  1.0000
  C   C72       1.0  0.9646204800237552  0.10693233801335279  0.05180679927673551  1.0000
  C   C73       1.0  0.8560719315182749  0.4932631981513569  0.5003945907377092  1.0000
  C   C74       1.0  0.14392806866013408  0.5067368019800833  0.4996054093415942  1.0000
  C   C75       1.0  0.6996657183687324  0.7780199197287224  0.9316373525847755  1.0000
  C   C76       1.0  0.30033428180459837  0.2219800803781953  0.06836264683713579  1.0000
  C   C77       1.0  0.15418175296756387  0.8826015710869665  0.9428597243021604  1.0000
  C   C78       1.0  0.8458182463377502  0.11739842901692558  0.05714027512199575  1.0000
  C   C79       1.0  0.8318835633679047  0.39639441355443944  0.47388435250588484  1.0000
  C   C80       1.0  0.16811643671433527  0.6036055858582808  0.5261156475708282  1.0000
  C   C81       1.0  0.6922981715062919  0.8753150162581764  0.9189593681792957  1.0000
  C   C82       1.0  0.30770182867211704  0.12468498387326375  0.08104063190000763  1.0000
  C   C83       1.0  0.02250607836244658  0.38597078277188474  0.2757545110524995  1.0000
  C   C84       1.0  0.9774939217197934  0.6140292166408357  0.7242454890242134  1.0000
  C   C85       1.0  0.592502790266732  0.7897355408123056  0.06862255136619969  1.0000
  C   C86       1.0  0.4074972099116769  0.21026445931913462  0.9313774487131037  1.0000
  C   C87       1.0  0.7524628870842852  0.37004769935033893  0.40573874527113846  1.0000
  C   C88       1.0  0.24753711308904552  0.6299523007565787  0.5942612541507729  1.0000
  C   C89       1.0  0.7496038364017918  0.28108331547187415  0.18845221876742918  1.0000
  C   C90       1.0  0.25039616377661705  0.7189166846595658  0.8115477813118741  1.0000
  C   C91       1.0  0.6348542423559761  0.9297202766460154  0.9803027940347304  1.0000
  C   C92       1.0  0.3651457578224329  0.07027972348542476  0.01969720604457278  1.0000
  C   C93       1.0  0.20852944463264528  0.8367942943553982  0.008638209175607231  1.0000
  C   C94       1.0  0.7914705555457637  0.16320570577604182  0.9913617909036961  1.0000
  C   C95       1.0  0.5858730986743292  0.8872053881712544  0.05536678712796916  1.0000
  C   C96       1.0  0.4141269015040797  0.1127946119601857  0.9446332129513343  1.0000
  C   C97       1.0  0.5408099590268095  0.286192486283661  0.18573003468470858  1.0000
  C   C98       1.0  0.45919004115159945  0.713807513847779  0.8142699653945947  1.0000
  C   C99       1.0  0.3421441580892418  0.6535196911553696  0.234883845643241  1.0000
  C   C100      1.0  0.6578558419929982  0.3464803082573508  0.7651161544334719  1.0000
  C   C101      1.0  0.3470958336788221  0.5789739644258138  0.302741384751952  1.0000
  C   C102      1.0  0.652904166403418  0.42102603498690655  0.697258615324761  1.0000
  C   C103      1.0  0.35176789526161045  0.6200930170422229  0.140896888059118  1.0000
  C   C104      1.0  0.6482321039526129  0.3799069823674719  0.8591031120198398  1.0000
  N   N1        1.0  0.5670064851954847  0.13569518709070943  0.4498627922537218  1.0000
  N   N2        1.0  0.4329935140187385  0.8643048123189851  0.550137207825236  1.0000
  N   N3        1.0  0.6876571375825222  0.9800743541267318  0.4571857228817559  1.0000
  N   N4        1.0  0.3123428625958867  0.019925646004708242  0.5428142771975475  1.0000
  N   N5        1.0  0.9326673526239907  0.865039200893884  0.5337035912654501  1.0000
  N   N6        1.0  0.0673326475544183  0.1349607992375561  0.46629640881385337  1.0000
  N   N7        1.0  0.6419810808226378  0.5985694268010308  0.18271822552686867  1.0000
  N   N8        1.0  0.3580189193557711  0.4014305733304094  0.8172817745524347  1.0000
  N   N9        1.0  0.8502528031433001  0.9917124310819767  0.5900593922134486  1.0000
  N   N10       1.0  0.14974719703510897  0.008287569049463497  0.4099406078658546  1.0000
  N   N11       1.0  0.846121507136413  0.6226867562435947  0.09241250296632464  1.0000
  N   N12       1.0  0.15387849217397914  0.37731324388481974  0.9075874971152236  1.0000
  N   N13       1.0  0.44456913297988004  0.06525434562416753  0.34492973474676863  1.0000
  N   N14       1.0  0.555430867198529  0.9347456545072726  0.6550702653325347  1.0000
  N   N15       1.0  0.8410094307241114  0.6797471110237089  0.26621723414598447  1.0000
  N   N16       1.0  0.15899056858628088  0.3202528891047055  0.7337827659355638  1.0000
  O   O1        1.0  0.03144941393560558  0.6300411673929249  0.1917877368478755  1.0000
  O   O2        1.0  0.9685505862428035  0.36995883273851526  0.8082122632314278  1.0000
  O   O3        1.0  0.9610354742535988  0.7833923847876151  0.15911672640031307  1.0000
  O   O4        1.0  0.038964525924810395  0.21660761534382506  0.8408832736789902  1.0000
  O   O5        1.0  0.6820440805572224  0.48055862379896086  0.053093060277133876  1.0000
  O   O6        1.0  0.3179559196211866  0.5194413763324792  0.9469069398021694  1.0000
  O   O7        1.0  0.6620726193094552  0.6057273316043738  0.35494001428690003  1.0000
  O   O8        1.0  0.3379273808689538  0.39427266852706633  0.6450599857924033  1.0000
  O   O9        1.0  0.6336697991138494  0.7493531495628301  0.27656865747452364  1.0000
  O   O10       1.0  0.3663302010645597  0.25064685056861  0.7234313426047797  1.0000
  O   O11       1.0  0.6480423419814791  0.6361541627852622  0.012808871583212984  1.0000
  O   O12       1.0  0.35195765819185176  0.36384583732165565  0.9871911278386982  1.0000
  O   O13       1.0  0.7421077030165936  0.17118408914903144  0.5894367741004936  1.0000
  O   O14       1.0  0.2578922970656466  0.828815910263689  0.41056322597621936  1.0000
  O   O15       1.0  0.3312639943630487  0.7384462835303289  0.2558454237028729  1.0000
  O   O16       1.0  0.6687360058153603  0.2615537166011112  0.7441545763764303  1.0000
  O   O17       1.0  0.03177042313052544  0.750725341196579  0.4137808596016853  1.0000
  O   O18       1.0  0.9682295770428053  0.24927465891033884  0.586219139820226  1.0000
  O   O19       1.0  0.34846423332732573  0.9458260678531683  0.2021980790756902  1.0000
  O   O20       1.0  0.651535766846005  0.054173932253749335  0.7978019203462211  1.0000
  P   P1        1.0  0.7023398560031224  0.6553375881609905  0.26557095885099236  1.0000
  P   P2        1.0  0.29766014417528663  0.34466241197044956  0.7344290412283109  1.0000
  P   P3        1.0  0.9113857521866578  0.6749728169908207  0.17583084050080994  1.0000
  P   P4        1.0  0.08861424798667282  0.3250271831160971  0.8241691589211013  1.0000
  P   P5        1.0  0.7093658006651639  0.5883196092903781  0.09175805164655902  1.0000
  P   P6        1.0  0.2906341995081668  0.41168039081653957  0.9082419477753523  1.0000
