data_image0
_chemical_formula_structural       H88B4C100N4O12F28P4S4
_chemical_formula_sum              "H88 B4 C100 N4 O12 F28 P4 S4"
_cell_length_a       13.867259956542055
_cell_length_b       10.439624799613343
_cell_length_c       17.95143318405181
_cell_angle_alpha    90.0
_cell_angle_beta     104.98154703719891
_cell_angle_gamma    90.0

_space_group_name_H-M_alt    "P 1"
_space_group_IT_number       1

loop_
  _space_group_symop_operation_xyz
  'x, y, z'

loop_
  _atom_site_type_symbol
  _atom_site_label
  _atom_site_symmetry_multiplicity
  _atom_site_fract_x
  _atom_site_fract_y
  _atom_site_fract_z
  _atom_site_occupancy
  H   H1        1.0  0.4057748988332732  0.38712163488382106  0.3953060546197534  1.0000
  H   H2        1.0  0.5942251010573286  0.8871216349023399  0.10469394589103573  1.0000
  H   H3        1.0  0.5942251008371864  0.6128783651532165  0.6046939456626069  1.0000
  H   H4        1.0  0.4057748993344058  0.11287836513469768  0.895306054391779  1.0000
  H   H5        1.0  0.5891007322072099  0.3708011843628109  0.4092493342029433  1.0000
  H   H6        1.0  0.41089926749098477  0.8708011843813297  0.09075066573118616  1.0000
  H   H7        1.0  0.41089926818452455  0.6291988156742266  0.5907506660798714  1.0000
  H   H8        1.0  0.5891007319870677  0.12919881565570784  0.9092493339745146  1.0000
  H   H9        1.0  0.6560193915540435  0.17221824198764207  0.3596008766632246  1.0000
  H   H10       1.0  0.3439806081441512  0.6722182420061609  0.14039912327090492  1.0000
  H   H11       1.0  0.343980608837691  0.8277817580493954  0.6403991236195902  1.0000
  H   H12       1.0  0.6560193913339013  0.32778175803087667  0.8596008764347959  1.0000
  H   H13       1.0  0.5340579127775286  0.001159803176111123  0.2974196095815347  1.0000
  H   H14       1.0  0.465942086920666  0.5011598031946298  0.2025803903525948  1.0000
  H   H15       1.0  0.4659420874217986  0.9988401968609264  0.7025803901246205  1.0000
  H   H16       1.0  0.5340579127497935  0.49884019684240766  0.7974196099297655  1.0000
  H   H17       1.0  0.32219574760484926  0.03860314884256436  0.20241793976969738  1.0000
  H   H18       1.0  0.6778042520933455  0.5386031488610831  0.29758206016443217  1.0000
  H   H19       1.0  0.6778042520656103  0.9613968502365844  0.7975820605126629  1.0000
  H   H20       1.0  0.32219574738470697  0.4613968511759544  0.7024179395412685  1.0000
  H   H21       1.0  0.2826399300561652  0.9827204633235456  0.28458097714116243  1.0000
  H   H22       1.0  0.7173600696420295  0.4827204633050268  0.21541902279296707  1.0000
  H   H23       1.0  0.7173600694218872  0.017279536713491972  0.7154190225645384  1.0000
  H   H24       1.0  0.282639930749705  0.5172795367320107  0.7845809774898477  1.0000
  H   H25       1.0  0.39096110744051643  0.9171264929324485  0.263559649635829  1.0000
  H   H26       1.0  0.6090388924500854  0.4171264929139297  0.23644035087496004  1.0000
  H   H27       1.0  0.6090388929512179  0.08287350710458902  0.7364403506469857  1.0000
  H   H28       1.0  0.3909611072203742  0.5828735071231078  0.7635596494074003  1.0000
  H   H29       1.0  0.036202869356037705  0.17684666215862271  0.3235784389073603  1.0000
  H   H30       1.0  0.963797130342157  0.6768466621771415  0.1764215610267692  1.0000
  H   H31       1.0  0.9637971301220147  0.8231533378784149  0.6764215607983405  1.0000
  H   H32       1.0  0.03620286932830267  0.32315333785989603  0.8235784392555912  1.0000
  H   H33       1.0  0.9637581717331667  0.018281215432863887  0.3951038564740293  1.0000
  H   H34       1.0  0.03624182796502803  0.5182812154513826  0.10489614346010018  1.0000
  H   H35       1.0  0.036241828466160635  0.9817187846041736  0.6048961432321258  1.0000
  H   H36       1.0  0.9637581717054315  0.4817187845856548  0.8951038568222601  1.0000
  H   H37       1.0  0.07417497422367389  0.8626038112340525  0.4836993829766193  1.0000
  H   H38       1.0  0.9258250254745208  0.3626038112155337  0.016300616957510238  1.0000
  H   H39       1.0  0.9258250252543786  0.13739618880298507  0.5163006167290815  1.0000
  H   H40       1.0  0.07417497419593885  0.6373961888215038  0.9836993833248501  1.0000
  H   H41       1.0  0.2574193300947624  0.8684191006879656  0.5003088169397354  1.0000
  H   H42       1.0  0.7425806693555551  0.36841910066944666  0.9996911831141962  1.0000
  H   H43       1.0  0.7425806695756971  0.13158089934907208  0.4996911833426249  1.0000
  H   H44       1.0  0.25741933012249746  0.6315808993675909  0.0003088165915045552  1.0000
  H   H45       1.0  0.3319759522285944  0.026842283643218556  0.4299176670405614  1.0000
  H   H46       1.0  0.6680240474696002  0.5268422836617374  0.07008233289356813  1.0000
  H   H47       1.0  0.6680240472494582  0.9731577163938191  0.5700823326651393  1.0000
  H   H48       1.0  0.3319759529221341  0.4731577163753002  0.9299176673892466  1.0000
  H   H49       1.0  0.2742626168017219  0.38658946058573657  0.19730109434586526  1.0000
  H   H50       1.0  0.7257373828964727  0.8865894606042553  0.3026989055882643  1.0000
  H   H51       1.0  0.7257373828687376  0.613410539451301  0.8026989059364951  1.0000
  H   H52       1.0  0.27426261730285456  0.11341053943278222  0.6973010941178909  1.0000
  H   H53       1.0  0.20277485229098335  0.3855112005700685  0.05666142156482296  1.0000
  H   H54       1.0  0.7972251474072113  0.8855112005885872  0.4433385783693065  1.0000
  H   H55       1.0  0.797225147187069  0.614488799466969  0.9433385781408778  1.0000
  H   H56       1.0  0.2027748522632483  0.11448879944845029  0.5566614219130538  1.0000
  H   H57       1.0  0.07557046218603142  0.22181891250399804  0.9958755488826118  1.0000
  H   H58       1.0  0.9244295379855609  0.7218189125225168  0.5041244511717743  1.0000
  H   H59       1.0  0.9244295380132959  0.7781810875330395  0.004124450823543442  1.0000
  H   H60       1.0  0.07557046240617361  0.2781810875145207  0.4958755491110404  1.0000
  H   H61       1.0  0.024715710553238592  0.05486275905444543  0.07645165002057391  1.0000
  H   H62       1.0  0.9752842891449561  0.5548627590729641  0.4235483499135556  1.0000
  H   H63       1.0  0.9752842889248138  0.9451372409825921  0.9235483496851268  1.0000
  H   H64       1.0  0.024715711246778356  0.44513724096407337  0.576451650369259  1.0000
  H   H65       1.0  0.09369769242374237  0.054824175292314925  0.21744686828421994  1.0000
  H   H66       1.0  0.9063023072744523  0.5548241743529448  0.28255313164990953  1.0000
  H   H67       1.0  0.9063023072467171  0.9451758247447226  0.7825531319981404  1.0000
  H   H68       1.0  0.09369769220360014  0.4451758247262038  0.7174468680557912  1.0000
  H   H69       1.0  0.2761496459985579  0.30808204142730516  0.47516627090172575  1.0000
  H   H70       1.0  0.7238503544209116  0.808082041445824  0.024833729032858153  1.0000
  H   H71       1.0  0.7238503542007694  0.6919179586097324  0.5248337288044294  1.0000
  H   H72       1.0  0.2761496459708228  0.1919179585912136  0.9751662712499566  1.0000
  H   H73       1.0  0.23819199865809376  0.5074856109959262  0.5363324453103182  1.0000
  H   H74       1.0  0.7618080007922234  0.007485610977407384  0.9636675547436131  1.0000
  H   H75       1.0  0.7618080008199587  0.49251438904111133  0.46366755439538243  1.0000
  H   H76       1.0  0.23819199887823603  0.9925143890596302  0.03633244553874709  1.0000
  H   H77       1.0  0.1574643537057594  0.6892086840387681  0.4557702893529201  1.0000
  H   H78       1.0  0.8425356467137101  0.18920868402024937  0.044229710581663764  1.0000
  H   H79       1.0  0.8425356466859749  0.31079131599826937  0.5442297109298945  1.0000
  H   H80       1.0  0.1574643534856172  0.8107913160167881  0.9557702891244915  1.0000
  H   H81       1.0  0.12002167397813467  0.6775295966826291  0.3121648883655699  1.0000
  H   H82       1.0  0.8799783266337421  0.1775295966641103  0.18783511214567356  1.0000
  H   H83       1.0  0.8799783264135999  0.32247040335440846  0.6878351119172448  1.0000
  H   H84       1.0  0.12002167375799239  0.8224704033729272  0.812164888137141  1.0000
  H   H85       1.0  0.15254026857255787  0.4779291560540371  0.24956807957221813  1.0000
  H   H86       1.0  0.8474597318469116  0.9779291560725558  0.25043192036236567  1.0000
  H   H87       1.0  0.8474597318191764  0.5220708439830005  0.7504319207105965  1.0000
  H   H88       1.0  0.15254026835241566  0.022070843964481737  0.7495680793437894  1.0000
  B   B1        1.0  0.8424407114279349  0.2739745618162383  0.35520705619556847  1.0000
  B   B2        1.0  0.15755928846266698  0.773974561834757  0.14479294431522066  1.0000
  B   B3        1.0  0.15755928896379956  0.7260254382207992  0.6447929440872463  1.0000
  B   B4        1.0  0.8424407112077926  0.22602543820228044  0.8552070559671396  1.0000
  C   C1        1.0  0.37275453509531753  0.20834997442442185  0.3359858402539493  1.0000
  C   C2        1.0  0.6272454646028771  0.7083499744429407  0.1640141596801802  1.0000
  C   C3        1.0  0.6272454643827349  0.7916500256126157  0.6640141594517515  1.0000
  C   C4        1.0  0.37275453506758244  0.2916500255940969  0.8359858406021801  1.0000
  C   C5        1.0  0.43682369530400084  0.3038289738264806  0.3734730427453692  1.0000
  C   C6        1.0  0.5631763043941939  0.8038289738449994  0.12652695718876034  1.0000
  C   C7        1.0  0.5631763050877336  0.6961710262105568  0.6265269575374456  1.0000
  C   C8        1.0  0.43682369508385854  0.19617102619203816  0.8734730425169404  1.0000
  C   C9        1.0  0.5396986163641442  0.2934395314775547  0.3822555796004382  1.0000
  C   C10       1.0  0.4603013833340504  0.7934395314960735  0.11774442033369124  1.0000
  C   C11       1.0  0.4603013831139082  0.7065604685594828  0.6177444201052625  1.0000
  C   C12       1.0  0.539698617057684  0.20656046854096408  0.8822555799491234  1.0000
  C   C13       1.0  0.5766913624948868  0.1842800231739414  0.3551380468374278  1.0000
  C   C14       1.0  0.4233086379245826  0.6842800231924602  0.1448619530971561  1.0000
  C   C15       1.0  0.4233086378968476  0.8157199768630962  0.6448619534453869  1.0000
  C   C16       1.0  0.5766913622747447  0.31571997684457737  0.8551380466089991  1.0000
  C   C17       1.0  0.510416071458093  0.09023333291009553  0.31875697037498213  1.0000
  C   C18       1.0  0.4895839289613765  0.5902333329286142  0.18124302955960175  1.0000
  C   C19       1.0  0.48958392874123424  0.909766667126942  0.6812430293311729  1.0000
  C   C20       1.0  0.5104160714303579  0.40976666710842324  0.8187569707232129  1.0000
  C   C21       1.0  0.34656600950891603  0.003883479605656094  0.26177927140945373  1.0000
  C   C22       1.0  0.6534339901892786  0.5038834796241749  0.23822072852467585  1.0000
  C   C23       1.0  0.6534339899691365  0.9961165204313814  0.7382207282962472  1.0000
  C   C24       1.0  0.34656601020245575  0.49611652041286264  0.7617792717581389  1.0000
  C   C25       1.0  0.1885527151014099  0.10769251975814688  0.36916258112022954  1.0000
  C   C26       1.0  0.8114472853180595  0.6076925197766656  0.13083741881435432  1.0000
  C   C27       1.0  0.8114472850979173  0.8923074802788906  0.6308374185859256  1.0000
  C   C28       1.0  0.18855271507367483  0.3923074802603719  0.8691625814684604  1.0000
  C   C29       1.0  0.0847611454586102  0.10703666189625767  0.3604142505327584  1.0000
  C   C30       1.0  0.9152388544319916  0.6070366619147765  0.13958574997803072  1.0000
  C   C31       1.0  0.9152388542118494  0.8929633381407799  0.6395857497496019  1.0000
  C   C32       1.0  0.08476114523846796  0.3929633381222611  0.8604142503043296  1.0000
  C   C33       1.0  0.043983237311854814  0.017830042130143806  0.4013146196699126  1.0000
  C   C34       1.0  0.9560167623863399  0.5178300421486626  0.09868538026421689  1.0000
  C   C35       1.0  0.9560167621661977  0.9821699579068938  0.5986853800357881  1.0000
  C   C36       1.0  0.0439832372841197  0.48216995788837497  0.9013146200181433  1.0000
  C   C37       1.0  0.10590755330859128  0.931302030161093  0.4509543604096097  1.0000
  C   C38       1.0  0.8940924471108782  0.4313020301425743  0.04904563952497419  1.0000
  C   C39       1.0  0.8940924470831432  0.06869796987594445  0.5490456398732051  1.0000
  C   C40       1.0  0.1059075530884491  0.5686979698944632  0.9509543601811811  1.0000
  C   C41       1.0  0.2090712537809492  0.9343274693513186  0.46050851115306324  1.0000
  C   C42       1.0  0.7909287459172456  0.4343274693327998  0.03949148878106631  1.0000
  C   C43       1.0  0.7909287464183781  0.06567253068571897  0.5394914885530919  1.0000
  C   C44       1.0  0.20907125375321411  0.5656725307042377  0.9605085115012939  1.0000
  C   C45       1.0  0.25117602468582734  0.022670422025968376  0.4200096518615812  1.0000
  C   C46       1.0  0.7488239750123673  0.5226704220444871  0.07999034807254836  1.0000
  C   C47       1.0  0.7488239749846323  0.9773295780110691  0.5799903484207791  1.0000
  C   C48       1.0  0.25117602518696  0.4773295779925504  0.9200096516336068  1.0000
  C   C49       1.0  0.18519088843371934  0.2240750462685824  0.21687413547580026  1.0000
  C   C50       1.0  0.8148091119857501  0.7240750462871012  0.28312586445878357  1.0000
  C   C51       1.0  0.8148091119580152  0.7759249537684552  0.7831258648070145  1.0000
  C   C52       1.0  0.1851908882135771  0.27592495374993636  0.7168741352473715  1.0000
  C   C53       1.0  0.21776575822969588  0.3158573601344493  0.17145041235506142  1.0000
  C   C54       1.0  0.782234241468499  0.8158573601529681  0.3285495875790681  1.0000
  C   C55       1.0  0.7822342412483565  0.6841426399025882  0.8285495873506394  1.0000
  C   C56       1.0  0.21776575892323563  0.18414263988406943  0.6714504127037466  1.0000
  C   C57       1.0  0.17791069348031474  0.3145893902357141  0.09197761945457358  1.0000
  C   C58       1.0  0.8220893062178799  0.8145893902542328  0.4080223804795559  1.0000
  C   C59       1.0  0.8220893061901448  0.6854106098013234  0.9080223808277867  1.0000
  C   C60       1.0  0.17791069398144738  0.1854106097828047  0.5919776192265993  1.0000
  C   C61       1.0  0.10747918915896097  0.22217815434189805  0.05794460198886287  1.0000
  C   C62       1.0  0.8925208105392337  0.7221781543604169  0.4420553979452666  1.0000
  C   C63       1.0  0.8925208103190915  0.7778218456951396  0.9420553977168378  1.0000
  C   C64       1.0  0.10747918985250068  0.27782184567662066  0.557944602337548  1.0000
  C   C65       1.0  0.0775162092468854  0.12912140195401714  0.10311822903465394  1.0000
  C   C66       1.0  0.9224837904513092  0.6291214019725359  0.39688177089947557  1.0000
  C   C67       1.0  0.9224837904235741  0.8708785980830203  0.8968817712477063  1.0000
  C   C68       1.0  0.07751620974801796  0.3708785980645016  0.6031182288066795  1.0000
  C   C69       1.0  0.115829809419394  0.1294768668362548  0.18282614507595052  1.0000
  C   C70       1.0  0.8841701902788006  0.6294768668547736  0.317173854858179  1.0000
  C   C71       1.0  0.8841701902510657  0.8705231332007827  0.8171738552064097  1.0000
  C   C72       1.0  0.11582980992052662  0.370523133182264  0.6828261448479762  1.0000
  C   C73       1.0  0.21573811284614366  0.3798987795181002  0.35841173416996847  1.0000
  C   C74       1.0  0.7842618875733259  0.879898779536619  0.14158826576461542  1.0000
  C   C75       1.0  0.7842618875455908  0.6201012205189372  0.6415882661128463  1.0000
  C   C76       1.0  0.2157381126260014  0.12010122050041858  0.8584117339415396  1.0000
  C   C77       1.0  0.2405489936219962  0.3880787823093081  0.4393363936725481  1.0000
  C   C78       1.0  0.7594510067974733  0.8880787823278269  0.060663606262035805  1.0000
  C   C79       1.0  0.7594510067697383  0.6119212177277294  0.5606636066102666  1.0000
  C   C80       1.0  0.24054899340185387  0.1119212177092107  0.9393363934441192  1.0000
  C   C81       1.0  0.21974146508501222  0.5003731168761423  0.4738073773602591  1.0000
  C   C82       1.0  0.7802585346131825  0.00037311685762349126  0.026192622573870387  1.0000
  C   C83       1.0  0.7802585343930403  0.49962688316089526  0.5261926223454417  1.0000
  C   C84       1.0  0.21974146577855205  0.9996268831794141  0.9738073777089443  1.0000
  C   C85       1.0  0.174994421034491  0.603041026937402  0.4280177227435626  1.0000
  C   C86       1.0  0.8250055793849784  0.1030410269188833  0.07198227719102128  1.0000
  C   C87       1.0  0.8250055793572436  0.39695897309963546  0.5719822775392521  1.0000
  C   C88       1.0  0.1749944208143488  0.8969589731181542  0.9280177225151339  1.0000
  C   C89       1.0  0.15202961204770724  0.5957420347358028  0.3477153643988701  1.0000
  C   C90       1.0  0.8479703876504875  0.09574203471728403  0.15228463553525948  1.0000
  C   C91       1.0  0.8479703881516201  0.4042579653012347  0.6522846353072851  1.0000
  C   C92       1.0  0.15202961201997217  0.9042579653197536  0.8477153647471009  1.0000
  C   C93       1.0  0.17145855086196873  0.48344476423970023  0.3121942862368707  1.0000
  C   C94       1.0  0.8285414488362259  0.9834447642582189  0.18780571369725882  1.0000
  C   C95       1.0  0.8285414488084909  0.5165552357973373  0.6878057140454896  1.0000
  C   C96       1.0  0.17145855136310129  0.01655523577881853  0.8121942860088963  1.0000
  C   C97       1.0  0.42831308436949  0.6831204671516675  0.38586286081700005  1.0000
  C   C98       1.0  0.5716869160499796  0.18312046713314878  0.11413713911758379  1.0000
  C   C99       1.0  0.5716869158298373  0.31687953288536996  0.614137138889155  1.0000
  C   C100      1.0  0.4283130843417549  0.8168795329038887  0.8858628611652308  1.0000
  N   N1        1.0  0.4109674226857019  0.10255971077041538  0.308581482642333  1.0000
  N   N2        1.0  0.5890325777337676  0.6025597107889341  0.1914185172922509  1.0000
  N   N3        1.0  0.5890325777060326  0.8974402892666222  0.6914185176404817  1.0000
  N   N4        1.0  0.4109674224655597  0.3974402892481033  0.8085814824139043  1.0000
  O   O1        1.0  0.541724685680786  0.8018444178482391  0.3120913735134228  1.0000
  O   O2        1.0  0.4582753140174086  0.3018444178297203  0.18790862642070663  1.0000
  O   O3        1.0  0.4582753145185412  0.19815558218879845  0.6879086261927323  1.0000
  O   O4        1.0  0.541724685653051  0.6981555822073172  0.8120913738616536  1.0000
  O   O5        1.0  0.6078313943522453  0.6106083123060224  0.3878785565645579  1.0000
  O   O6        1.0  0.39216860534594933  0.11060831228750363  0.11212144336957162  1.0000
  O   O7        1.0  0.39216860512580703  0.3893916877310151  0.6121214431411428  1.0000
  O   O8        1.0  0.6078313943245103  0.8893916877495339  0.8878785569127887  1.0000
  O   O9        1.0  0.5883619423267149  0.8129140762141489  0.4540586660864267  1.0000
  O   O10       1.0  0.4116380573714797  0.3129140761956302  0.04594133384770279  1.0000
  O   O11       1.0  0.4116380580650194  0.18708592382288855  0.5459413341963879  1.0000
  O   O12       1.0  0.5883619421065727  0.6870859238414073  0.9540586658579979  1.0000
  F   F1        1.0  0.3690077192079674  0.7853433909141696  0.3893975490505762  1.0000
  F   F2        1.0  0.6309922804902273  0.2853433908956508  0.11060245088355328  1.0000
  F   F3        1.0  0.630992281183767  0.21465660912286796  0.6106024512322384  1.0000
  F   F4        1.0  0.36900771898782525  0.7146566091413867  0.8893975488221475  1.0000
  F   F5        1.0  0.4302675030183244  0.606824057530749  0.4478485567059575  1.0000
  F   F6        1.0  0.5697324966798702  0.10682405751223016  0.05215144322817196  1.0000
  F   F7        1.0  0.5697324971810028  0.39317594250628857  0.5521514430001975  1.0000
  F   F8        1.0  0.4302675029905893  0.8931759425248074  0.9478485570541882  1.0000
  F   F9        1.0  0.3844403845749476  0.6151934761331528  0.32119565682401297  1.0000
  F   F10       1.0  0.6155596153156543  0.11519347611463397  0.17880434368677614  1.0000
  F   F11       1.0  0.6155596158167868  0.3848065239038848  0.6788043434588017  1.0000
  F   F12       1.0  0.3844403843548054  0.8848065239224036  0.8211956565955842  1.0000
  F   F13       1.0  0.7592778804171857  0.3467776753944341  0.3633401897728008  1.0000
  F   F14       1.0  0.240722119281009  0.8467776754129529  0.13665981016132867  1.0000
  F   F15       1.0  0.2407221197821416  0.6532223246426034  0.6366598099333542  1.0000
  F   F16       1.0  0.7592778803894505  0.15322232462408464  0.8633401901210317  1.0000
  F   F17       1.0  0.8147731382880026  0.14188877650611184  0.3486260754992693  1.0000
  F   F18       1.0  0.18522686141019207  0.6418887765246306  0.1513739244348602  1.0000
  F   F19       1.0  0.18522686138245698  0.8581112235309256  0.651373924783091  1.0000
  F   F20       1.0  0.8147731380678603  0.35811122351240693  0.8486260752708406  1.0000
  F   F21       1.0  0.9228002313421744  0.29179466489186706  0.4215752508402468  1.0000
  F   F22       1.0  0.07719976907729509  0.7917946649103857  0.07842474909433711  1.0000
  F   F23       1.0  0.07719976904956002  0.7082053351451704  0.5784247494425679  1.0000
  F   F24       1.0  0.9228002311220321  0.2082053351266517  0.921575250611818  1.0000
  F   F25       1.0  0.8716704866527004  0.31362007474840126  0.2888270075392086  1.0000
  F   F26       1.0  0.12832951323790148  0.8136200747669201  0.2111729929715805  1.0000
  F   F27       1.0  0.12832951301775927  0.6863799252886362  0.7111729927431517  1.0000
  F   F28       1.0  0.8716704864325582  0.18637992527011749  0.7888270073107798  1.0000
  P   P1        1.0  0.23759360972224394  0.2289841125409544  0.31867162975448604  1.0000
  P   P2        1.0  0.7624063899759507  0.7289841125594732  0.1813283701796434  1.0000
  P   P3        1.0  0.7624063897558084  0.7710158874960831  0.6813283699512146  1.0000
  P   P4        1.0  0.23759360969450893  0.27101588747756433  0.8186716301027169  1.0000
  S   S1        1.0  0.5569883096141491  0.7332612164647451  0.38539256435081803  1.0000
  S   S2        1.0  0.4430116902764527  0.23326121644622635  0.11460743615997104  1.0000
  S   S3        1.0  0.4430116900563104  0.2667387835722924  0.6146074359315422  1.0000
  S   S4        1.0  0.556988309394007  0.7667387835908112  0.8853925641223893  1.0000
