data_image0
_chemical_formula_structural       H40C50N4O8
_chemical_formula_sum              "H40 C50 N4 O8"
_cell_length_a       9.379446733120423
_cell_length_b       9.8882931943312
_cell_length_c       11.320828181449553
_cell_angle_alpha    84.53770055440667
_cell_angle_beta     81.97131335758185
_cell_angle_gamma    71.26777236177777

_space_group_name_H-M_alt    "P 1"
_space_group_IT_number       1

loop_
  _space_group_symop_operation_xyz
  'x, y, z'

loop_
  _atom_site_type_symbol
  _atom_site_label
  _atom_site_symmetry_multiplicity
  _atom_site_fract_x
  _atom_site_fract_y
  _atom_site_fract_z
  _atom_site_occupancy
  H   H1        1.0  0.078121138742895  0.8713694100347341  0.07621101446648536  1.0000
  H   H2        1.0  0.9218788608217087  0.1286305904162629  0.9237889860212122  1.0000
  H   H3        1.0  0.5819301975713179  0.7660699721010756  0.9960256152113118  1.0000
  H   H4        1.0  0.4180698023423489  0.23393002728054937  0.003974385319497797  1.0000
  H   H5        1.0  0.4092782527657281  0.5967204265730581  0.5936505208754488  1.0000
  H   H6        1.0  0.5907217471404136  0.40327957281513876  0.40634947877238514  1.0000
  H   H7        1.0  0.33517155196759796  0.8271064605148626  0.040237542141520075  1.0000
  H   H8        1.0  0.6648284475970055  0.17289353993613457  0.9597624583461776  1.0000
  H   H9        1.0  0.0722672546087309  0.740059871172037  0.7890074494928326  1.0000
  H   H10       1.0  0.9277327449558727  0.25994012927896026  0.21099255099486514  1.0000
  H   H11       1.0  0.6917440988632575  0.4714287360129391  0.9095136936622887  1.0000
  H   H12       1.0  0.30825590070134606  0.5285712644380581  0.0904863068254088  1.0000
  H   H13       1.0  0.9554249584527553  0.39644731084789  0.959599416181005  1.0000
  H   H14       1.0  0.044575041104323185  0.6035526896096793  0.0404005834237171  1.0000
  H   H15       1.0  0.16258122194101812  0.4291568702314861  0.8087976482279018  1.0000
  H   H16       1.0  0.8374187786943531  0.5708431302212409  0.191202351248032  1.0000
  H   H17       1.0  0.10756293090171723  0.5308600106118552  0.605452675912908  1.0000
  H   H18       1.0  0.8924370700902429  0.4691399887649272  0.3945473244891134  1.0000
  H   H19       1.0  0.8419021240891801  0.6045547141776506  0.5535784305529652  1.0000
  H   H20       1.0  0.15809787582448687  0.3954452852039743  0.44642156997784443  1.0000
  H   H21       1.0  0.061442943715536595  0.7413678632946257  0.2999601271484725  1.0000
  H   H22       1.0  0.9385570569198349  0.25863213715810124  0.7000398723274613  1.0000
  H   H23       1.0  0.14144017173508594  0.7886380157997646  0.48952717509692983  1.0000
  H   H24       1.0  0.8585598281785809  0.21136198358186034  0.5104728254338797  1.0000
  H   H25       1.0  0.25689390975418175  0.14747412500235568  0.2980595003790644  1.0000
  H   H26       1.0  0.7431060901519599  0.8525258743858414  0.7019404992687696  1.0000
  H   H27       1.0  0.17107436629941758  0.08571410799295477  0.12040038907757446  1.0000
  H   H28       1.0  0.8289256336067241  0.9142858913952423  0.8795996105702596  1.0000
  H   H29       1.0  0.21729133625763072  0.9373813968301156  0.6012040824836439  1.0000
  H   H30       1.0  0.7827086636560362  0.06261860255150947  0.3987959180471657  1.0000
  H   H31       1.0  0.3478197362787208  0.16263998994383538  0.4608474096538265  1.0000
  H   H32       1.0  0.6521802636349459  0.8373600094377895  0.5391525908769831  1.0000
  H   H33       1.0  0.23665860221334833  0.9953001011929917  0.767217847337467  1.0000
  H   H34       1.0  0.7633413973437299  0.0046998992645777525  0.232782152267255  1.0000
  H   H35       1.0  0.29825921526704025  0.06278542866979134  0.9529627489631228  1.0000
  H   H36       1.0  0.7017407846391015  0.9372145707184059  0.04703725068471112  1.0000
  H   H37       1.0  0.5171242043493102  0.33749929912386883  0.7717707605329145  1.0000
  H   H38       1.0  0.4828757955643568  0.6625007002577561  0.22822923999789527  1.0000
  H   H39       1.0  0.4613958971995238  0.28466481791918524  0.5749810095694974  1.0000
  H   H40       1.0  0.5386041023575545  0.7153351825383842  0.42501899003522464  1.0000
  C   C1        1.0  0.18826959422764086  0.7865463571355302  0.9256377827011827  1.0000
  C   C2        1.0  0.8117304053369626  0.21345364331546698  0.07436221778651483  1.0000
  C   C3        1.0  0.3293861194061431  0.7818380472658065  0.9579145804592574  1.0000
  C   C4        1.0  0.6706138801584605  0.2181619531851907  0.0420854200284401  1.0000
  C   C5        1.0  0.46212583413047603  0.7303941961178568  0.8809429328406522  1.0000
  C   C6        1.0  0.5378741654266023  0.2696058043397126  0.1190570667640697  1.0000
  C   C7        1.0  0.46024713447445764  0.6679266536133527  0.7717843825753015  1.0000
  C   C8        1.0  0.5397528650826205  0.3320733468442168  0.22821561702942045  1.0000
  C   C9        1.0  0.3127227751657104  0.6791794762881463  0.7400526426169568  1.0000
  C   C10       1.0  0.6872772243988932  0.32082052416285095  0.2599473578707408  1.0000
  C   C11       1.0  0.18047599702152037  0.7362873900819797  0.8154582043245162  1.0000
  C   C12       1.0  0.8195240025430831  0.26371261036901733  0.18454179616318142  1.0000
  C   C13       1.0  0.5925565056869181  0.5945055330259608  0.6938987135430988  1.0000
  C   C14       1.0  0.40744349422674875  0.40549446635566405  0.30610128698771083  1.0000
  C   C15       1.0  0.74882232015751  0.5476850550233422  0.7290428474444075  1.0000
  C   C16       1.0  0.2511776797486315  0.45231494436485503  0.2709571522034265  1.0000
  C   C17       1.0  0.7818954338638646  0.4866180096842409  0.8429983500531902  1.0000
  C   C18       1.0  0.21810456712057  0.5133819896991136  0.15700164946585554  1.0000
  C   C19       1.0  0.9304438913446267  0.4437383239187244  0.8711690691746307  1.0000
  C   C20       1.0  0.06955610856903999  0.5562616754629005  0.12883093135617896  1.0000
  C   C21       1.0  0.04714115975081588  0.46014360990902425  0.7857216649566771  1.0000
  C   C22       1.0  0.9528588401553256  0.5398563894791727  0.21427833469115673  1.0000
  C   C23       1.0  0.016063882483666414  0.5169948916747552  0.6709430723015768  1.0000
  C   C24       1.0  0.9839361174224751  0.4830051077134419  0.32905692734625724  1.0000
  C   C25       1.0  0.867603993658371  0.5596794163929699  0.642689817154451  1.0000
  C   C26       1.0  0.13239600590623263  0.4403205840580273  0.3573101833332466  1.0000
  C   C27       1.0  0.10483731596057111  0.8305597688873113  0.30399552207759617  1.0000
  C   C28       1.0  0.8951626839455706  0.16944023050088575  0.6960044775702379  1.0000
  C   C29       1.0  0.14843192750329576  0.8578371550069633  0.40946981367384727  1.0000
  C   C30       1.0  0.851568072410371  0.14216284437466156  0.5905301868569623  1.0000
  C   C31       1.0  0.205011455819317  0.973154056801514  0.41176764022861057  1.0000
  C   C32       1.0  0.7949885437377613  0.02684594365605536  0.5882323593761113  1.0000
  C   C33       1.0  0.21533783548058943  0.055774018945087364  0.30443957017844325  1.0000
  C   C34       1.0  0.7846621651547817  0.9442259815076397  0.6955604292974905  1.0000
  C   C35       1.0  0.16834190713973815  0.021255859026841014  0.2037839395601459  1.0000
  C   C36       1.0  0.8316580924248657  0.9787441414241561  0.7962160609275517  1.0000
  C   C37       1.0  0.24599027356557887  0.00255285800960984  0.5237667065669522  1.0000
  C   C38       1.0  0.7540097263405627  0.9974471413785874  0.47623329308088175  1.0000
  C   C39       1.0  0.3136189642387762  0.100757980417724  0.5384526315785106  1.0000
  C   C40       1.0  0.6863810353258275  0.899242020033273  0.46154736890918696  1.0000
  C   C41       1.0  0.34610526432757766  0.13307199280870563  0.6528333441203333  1.0000
  C   C42       1.0  0.6538947352370261  0.8669280076422915  0.34716665636736427  1.0000
  C   C43       1.0  0.2994603776692352  0.07143903923489939  0.7623736074749691  1.0000
  C   C44       1.0  0.7005396229736615  0.9285609612112553  0.23762639288394022  1.0000
  C   C45       1.0  0.33349024735051785  0.10909324459638713  0.8672092416909397  1.0000
  C   C46       1.0  0.6665097522065606  0.8909067558611823  0.1327907579137823  1.0000
  C   C47       1.0  0.4553465509332705  0.26210672038769367  0.7664581693772837  1.0000
  C   C48       1.0  0.5446534486313331  0.7378932800633036  0.23354183111041385  1.0000
  C   C49       1.0  0.4254304485393192  0.23135137618772808  0.6569586271530851  1.0000
  C   C50       1.0  0.5745695510177591  0.7686486242698412  0.34304137245163674  1.0000
  N   N1        1.0  0.11344293988699518  0.9111175427673409  0.20219495757301795  1.0000
  N   N2        1.0  0.8865570607483763  0.088882457685386  0.7978050419029158  1.0000
  N   N3        1.0  0.4101608517971939  0.20232017017217357  0.870743750387127  1.0000
  N   N4        1.0  0.5898391477598843  0.7976798302853959  0.1292562492175949  1.0000
  O   O1        1.0  0.05866082555057492  0.8424288793144031  0.9953881616263819  1.0000
  O   O2        1.0  0.9413391743555667  0.15757112007379398  0.004611838021452117  1.0000
  O   O3        1.0  0.5916644436012362  0.7450690003815023  0.906331040904067  1.0000
  O   O4        1.0  0.40833555596336746  0.25493100006949504  0.0936689595836307  1.0000
  O   O5        1.0  0.5798761333670462  0.5619426151781662  0.5901898158254958  1.0000
  O   O6        1.0  0.42012386619755726  0.43805738527283106  0.40981018466220176  1.0000
  O   O7        1.0  0.3003142753448394  0.6328279783806949  0.6350955410668442  1.0000
  O   O8        1.0  0.699685725290532  0.367172022072032  0.3649044584090895  1.0000
