data_image0
_chemical_formula_structural       H52C28N8O14
_chemical_formula_sum              "H52 C28 N8 O14"
_cell_length_a       13.0985849292501
_cell_length_b       5.346298185757742
_cell_length_c       14.135768712999129
_cell_angle_alpha    90.0
_cell_angle_beta     110.08950835237665
_cell_angle_gamma    90.0

_space_group_name_H-M_alt    "P 1"
_space_group_IT_number       1

loop_
  _space_group_symop_operation_xyz
  'x, y, z'

loop_
  _atom_site_type_symbol
  _atom_site_label
  _atom_site_symmetry_multiplicity
  _atom_site_fract_x
  _atom_site_fract_y
  _atom_site_fract_z
  _atom_site_occupancy
  H   H1        1.0  0.2322467787097478  0.7695451426484329  0.5293893509821997  1.0000
  H   H2        1.0  0.7677532211940352  0.2695451431869123  0.47061064911358114  1.0000
  H   H3        1.0  0.48876759630517513  0.4496052551657882  0.5043898903434747  1.0000
  H   H4        1.0  0.5112324035986079  0.9496052546273088  0.49561010975230635  1.0000
  H   H5        1.0  0.3788149653860469  0.3026701810816888  0.5293446505199207  1.0000
  H   H6        1.0  0.6211850345177362  0.8026701805432095  0.47065534957586025  1.0000
  H   H7        1.0  0.44218669529698973  0.5674076799683876  0.6007057686254438  1.0000
  H   H8        1.0  0.5578133046067933  0.0674076805068669  0.39929423147033727  1.0000
  H   H9        1.0  0.07734488010552389  0.1606070425116592  0.2968560997522417  1.0000
  H   H10       1.0  0.9226551197982592  0.6606070419731799  0.7031439003435392  1.0000
  H   H11       1.0  0.10211160568250267  0.14390909995435544  0.4290460081462405  1.0000
  H   H12       1.0  0.8978883942212803  0.6439091012863293  0.5709539919495404  1.0000
  H   H13       1.0  0.008374182419619585  0.7404526258085861  0.27877816917711723  1.0000
  H   H14       1.0  0.9916258174841636  0.2404526263470654  0.7212218309186637  1.0000
  H   H15       1.0  0.02500315900442229  0.727567132406157  0.4053265671052179  1.0000
  H   H16       1.0  0.9749968408988277  0.22756713107418322  0.5946734322829681  1.0000
  H   H17       1.0  0.895041194445145  0.116314662668196  0.2635502260173627  1.0000
  H   H18       1.0  0.10495880545863812  0.6163146621297166  0.7364497740784183  1.0000
  H   H19       1.0  0.8167565704331672  0.7102894878022565  0.19709188476898484  1.0000
  H   H20       1.0  0.18324342947008274  0.21028948834073588  0.8029081146192013  1.0000
  H   H21       1.0  0.731060886306512  0.8605996860139381  0.2534374698495645  1.0000
  H   H22       1.0  0.2689391135972711  0.36059968655241753  0.7465625302462164  1.0000
  H   H23       1.0  0.8168702920855742  0.6110207449151106  0.31796637142306794  1.0000
  H   H24       1.0  0.18312970781820886  0.11102074358313685  0.682033628672713  1.0000
  H   H25       1.0  0.3017191498068293  0.03055389062195528  0.19036764681306068  1.0000
  H   H26       1.0  0.6982808500969537  0.530553890083476  0.8096323532827203  1.0000
  H   H27       1.0  0.163326781022988  0.06316005173440227  0.17890053310695206  1.0000
  H   H28       1.0  0.8366732188807952  0.5631600530663761  0.8210994669888289  1.0000
  H   H29       1.0  0.13510980924151714  0.6279685893584631  0.1452731730088943  1.0000
  H   H30       1.0  0.864890190662266  0.12796858989694246  0.8547268270868866  1.0000
  H   H31       1.0  0.26778743095796315  0.5833864127348415  0.14810372327550622  1.0000
  H   H32       1.0  0.7322125689452866  0.08338641327332075  0.8518962761126799  1.0000
  H   H33       1.0  0.11384974256596367  0.9534095486066798  0.01631533504197416  1.0000
  H   H34       1.0  0.8861502573372861  0.453409547274706  0.9836846643462119  1.0000
  H   H35       1.0  0.30409979406243975  0.03045451157844899  0.033675398768722956  1.0000
  H   H36       1.0  0.6959002058413434  0.5304545110399697  0.966324601327058  1.0000
  H   H37       1.0  0.23451081715219915  0.904393979161247  0.912576105257061  1.0000
  H   H38       1.0  0.765489182751584  0.40439397969972635  0.08742389483871994  1.0000
  H   H39       1.0  0.32219610723793424  0.7073952646477718  0.007798255214537319  1.0000
  H   H40       1.0  0.6778038926658488  0.2073952651862511  0.9922017448812437  1.0000
  H   H41       1.0  0.40824972106060464  0.6280645884932228  0.3273433111617112  1.0000
  H   H42       1.0  0.5917502788431784  0.12806458903170215  0.6726566889340697  1.0000
  H   H43       1.0  0.5560674517758295  0.35020324249546814  0.11625868960160861  1.0000
  H   H44       1.0  0.4439325481279535  0.850203243827442  0.8837413104941724  1.0000
  H   H45       1.0  0.5452193714340057  0.08809052051279292  0.18778156257217885  1.0000
  H   H46       1.0  0.4547806284697774  0.5880905199743136  0.812218437523602  1.0000
  H   H47       1.0  0.6400643436463967  0.329095111957477  0.2469913767636067  1.0000
  H   H48       1.0  0.3599356570697532  0.8290951132894508  0.7530086228828493  1.0000
  H   H49       1.0  0.9887045938602612  0.4219086761768979  0.15678145124262774  1.0000
  H   H50       1.0  0.011295406043521845  0.9219086756384186  0.8432185488531533  1.0000
  H   H51       1.0  0.970069397762461  0.7032186382748762  0.11348727451710759  1.0000
  H   H52       1.0  0.02993060214132206  0.20321863881335545  0.8865127255786733  1.0000
  C   C1        1.0  0.3414729157842804  0.6518775831254996  0.4500330947659272  1.0000
  C   C2        1.0  0.6585270841195027  0.15187758179352578  0.5499669053298537  1.0000
  C   C3        1.0  0.25685206794293713  0.855007646632438  0.30786415909988407  1.0000
  C   C4        1.0  0.7431479319608459  0.35500764530046425  0.692135840995897  1.0000
  C   C5        1.0  0.20317466671216194  0.9044223932142463  0.37465423924988855  1.0000
  C   C6        1.0  0.796825333191088  0.4044223937527256  0.6253457601382975  1.0000
  C   C7        1.0  0.41693940640718874  0.4839691446490608  0.5252554274440451  1.0000
  C   C8        1.0  0.5830605934965943  0.9839691441105815  0.47474457265173586  1.0000
  C   C9        1.0  0.09931331240732988  0.035929131396320535  0.36212835839238394  1.0000
  C   C10       1.0  0.9006866874964533  0.5359291308578412  0.637871641703397  1.0000
  C   C11       1.0  0.8991830495446452  0.9663073103109733  0.317658503441123  1.0000
  C   C12       1.0  0.10081695035913794  0.46630731084945265  0.6823414966546579  1.0000
  C   C13       1.0  0.8829108217053325  0.08096099674220704  0.41031221934995415  1.0000
  C   C14       1.0  0.11708917819845048  0.5809609962037278  0.5896877807458268  1.0000
  C   C15       1.0  0.8108114042901894  0.7735620716063446  0.26880490717827543  1.0000
  C   C16       1.0  0.18918859561359372  0.2735620721448238  0.7311950929175056  1.0000
  C   C17       1.0  0.2327504667968752  0.9343311009675788  0.2017394692861056  1.0000
  C   C18       1.0  0.7672495331063747  0.4343311015060581  0.7982605301020805  1.0000
  C   C19       1.0  0.16662712914230515  0.790031487815594  0.023805278288914666  1.0000
  C   C20       1.0  0.8333728707614778  0.29003148648362026  0.9761947218068663  1.0000
  C   C21       1.0  0.09907440879164546  0.5819592140012716  0.9565314149617928  1.0000
  C   C22       1.0  0.9009255911121377  0.08195921266929784  0.04346858513398827  1.0000
  C   C23       1.0  0.2637731291090335  0.8622392672148805  0.9933115079494914  1.0000
  C   C24       1.0  0.7362268707947496  0.36223926775335974  0.006688492146289559  1.0000
  C   C25       1.0  0.5595316871043854  0.291240882176742  0.19174946845906327  1.0000
  C   C26       1.0  0.44046831279939763  0.7912408816382627  0.8082505316367177  1.0000
  C   C27       1.0  0.46984264288084704  0.41993374892197466  0.21841305897675053  1.0000
  C   C28       1.0  0.530157357022936  0.9199337483834953  0.7815869411190305  1.0000
  N   N1        1.0  0.25886690324174527  0.7789080435306451  0.46254014435099616  1.0000
  N   N2        1.0  0.7411330966620377  0.27890804406912434  0.5374598557447848  1.0000
  N   N3        1.0  0.3427745902391575  0.698224494837249  0.3568745614413657  1.0000
  N   N4        1.0  0.6572254096646255  0.1982244953757283  0.6431254386544152  1.0000
  N   N5        1.0  0.008552175157334016  0.8481970463376399  0.3420578456919208  1.0000
  N   N6        1.0  0.9914478255593493  0.3481970468761193  0.65794215466213  1.0000
  N   N7        1.0  0.20181477338164255  0.7133402173787416  0.13208454044836454  1.0000
  N   N8        1.0  0.7981852265221404  0.21334021791722102  0.8679154596474165  1.0000
  O   O1        1.0  0.8051684550408407  0.23961311275391106  0.38825697901901834  1.0000
  O   O2        1.0  0.1948315448629425  0.7396131122154317  0.6117430210767627  1.0000
  O   O3        1.0  0.940780489497661  0.01074064296543934  0.497373572906325  1.0000
  O   O4        1.0  0.05921951040612197  0.5107406442974132  0.5026264271894559  1.0000
  O   O5        1.0  0.10240090197247123  0.36399953806994445  0.9919262449036531  1.0000
  O   O6        1.0  0.8975990987442121  0.8639995375314651  0.008073755450397666  1.0000
  O   O7        1.0  0.043739776157126556  0.6441273831627702  0.8664579393958871  1.0000
  O   O8        1.0  0.9562602237466565  0.14412738370124947  0.13354206069989388  1.0000
  O   O9        1.0  0.4974209530801052  0.5437631308602305  0.3012403996268065  1.0000
  O   O10       1.0  0.5025790468236778  0.04376312952825673  0.6987596004689745  1.0000
  O   O11       1.0  0.3726377343792724  0.39668767740073463  0.15825836729033352  1.0000
  O   O12       1.0  0.6273622655245107  0.8966876787327085  0.8417416328054473  1.0000
  O   O13       1.0  0.015778707077783848  0.6011599630865849  0.17295671581596622  1.0000
  O   O14       1.0  0.9842212928259992  0.10115996362506423  0.8270432842798147  1.0000
