data_image0
_chemical_formula_structural       H40C84N4O4F28
_chemical_formula_sum              "H40 C84 N4 O4 F28"
_cell_length_a       9.057601227405046
_cell_length_b       22.1028587972895
_cell_length_c       9.296272529570023
_cell_angle_alpha    90.0
_cell_angle_beta     112.81978275085272
_cell_angle_gamma    90.0

_space_group_name_H-M_alt    "P 1"
_space_group_IT_number       1

loop_
  _space_group_symop_operation_xyz
  'x, y, z'

loop_
  _atom_site_type_symbol
  _atom_site_label
  _atom_site_symmetry_multiplicity
  _atom_site_fract_x
  _atom_site_fract_y
  _atom_site_fract_z
  _atom_site_occupancy
  H   H1        1.0  0.48873416818449733  0.2581968695696433  0.6915773743715695  1.0000
  H   H2        1.0  0.5112658317228755  0.7581968696309589  0.8084226260118719  1.0000
  H   H3        1.0  0.5112658320217586  0.7418031305529879  0.3084226254745675  1.0000
  H   H4        1.0  0.4887341684833804  0.24180313049167232  0.1915773738342651  1.0000
  H   H5        1.0  0.6789634241717847  0.27264479971880395  0.40968105195078225  1.0000
  H   H6        1.0  0.32103657633966837  0.7726447997801196  0.09031894843612132  1.0000
  H   H7        1.0  0.3210365760344712  0.727355199951397  0.5903189478953548  1.0000
  H   H8        1.0  0.6789634238665875  0.2273552003425116  0.9096810514100157  1.0000
  H   H9        1.0  0.6880493319000617  0.4673719944890935  0.4342182008914953  1.0000
  H   H10       1.0  0.3119506674136105  0.967371994550409  0.06578179904846522  1.0000
  H   H11       1.0  0.3119506671147274  0.5326280056335376  0.5657817995857697  1.0000
  H   H12       1.0  0.6880493327926455  0.0326280055722221  0.9342182007976717  1.0000
  H   H13       1.0  0.5518828138058436  0.46292328308475433  0.6224772300546463  1.0000
  H   H14       1.0  0.4481171860952153  0.9629232831460699  0.8775227692507241  1.0000
  H   H15       1.0  0.44811718640041237  0.5370767165854468  0.3775227697914907  1.0000
  H   H16       1.0  0.5518828141110407  0.03707671697656126  0.12247723059541281  1.0000
  H   H17       1.0  0.47063581121882725  0.363928723599611  0.694300339372825  1.0000
  H   H18       1.0  0.5293641886885455  0.8639287236609267  0.8056996610106164  1.0000
  H   H19       1.0  0.5293641889937427  0.6360712765230202  0.3056996615513829  1.0000
  H   H20       1.0  0.47063581151771033  0.13607127646170464  0.1943003388355206  1.0000
  H   H21       1.0  0.2892169698389248  0.2149431706355833  0.685922669059992  1.0000
  H   H22       1.0  0.710783030068448  0.7149431706968988  0.8140773313234494  1.0000
  H   H23       1.0  0.7107830303673311  0.7850568294870479  0.31407733078614497  1.0000
  H   H24       1.0  0.28921696894002696  0.2850568294257323  0.18592266807574456  1.0000
  H   H25       1.0  0.1800586017552086  0.13110967755697614  0.7890314750007753  1.0000
  H   H26       1.0  0.819941399343631  0.6311096776182917  0.7109685247515382  1.0000
  H   H27       1.0  0.8199413984510474  0.8688903221132249  0.21096852484536174  1.0000
  H   H28       1.0  0.18005860086262485  0.36889032205190925  0.2890314750945988  1.0000
  H   H29       1.0  0.21053598609748786  0.024888228488681267  0.7150972947343709  1.0000
  H   H30       1.0  0.789464013809885  0.5248882285499968  0.7849027056490704  1.0000
  H   H31       1.0  0.7894640141150822  0.9751117716339498  0.284902706189837  1.0000
  H   H32       1.0  0.21053598639637092  0.47511177157263434  0.21509729419706655  1.0000
  H   H33       1.0  0.35581421746494396  0.0038770649890098735  0.5390974545498737  1.0000
  H   H34       1.0  0.6441857824424289  0.5038770645978953  0.9609025458335677  1.0000
  H   H35       1.0  0.6441857827413119  0.9961229351336213  0.46090254529626323  1.0000
  H   H36       1.0  0.35581421776382705  0.4961229350723057  0.03909745401256936  1.0000
  H   H37       1.0  0.8789718501855203  0.3734997723919935  0.1199226329821803  1.0000
  H   H38       1.0  0.12102814912815191  0.8734997724533091  0.3800773669577802  1.0000
  H   H39       1.0  0.12102814882295479  0.6265002277306376  0.8800773664170137  1.0000
  H   H40       1.0  0.878971851078104  0.1265002276693221  0.6199226328883568  1.0000
  C   C1        1.0  0.5618292217484852  0.31231556982332676  0.5501073840419984  1.0000
  C   C2        1.0  0.4381707793503546  0.8123155698846423  0.9498926157103149  1.0000
  C   C3        1.0  0.4381707784577708  0.6876844302993045  0.4498926158041386  1.0000
  C   C4        1.0  0.5618292208559014  0.1876844302379889  0.05010738413582198  1.0000
  C   C5        1.0  0.6466725046124031  0.3141578174879136  0.452630141395895  1.0000
  C   C6        1.0  0.35332749470126906  0.8141578175492292  0.04736985854406549  1.0000
  C   C7        1.0  0.3533274956001669  0.6858421826347176  0.547369859528313  1.0000
  C   C8        1.0  0.646672505504987  0.18584218257340201  0.9526301413020715  1.0000
  C   C9        1.0  0.6903758455673952  0.3702122175708538  0.40914828302434586  1.0000
  C   C10       1.0  0.3096241549377438  0.8702122176321693  0.09085171628448666  1.0000
  C   C11       1.0  0.3096241546388608  0.6297877820993473  0.590851716821791  1.0000
  C   C12       1.0  0.6903758452685121  0.12978778203803165  0.9091482835616503  1.0000
  C   C13       1.0  0.6542545719990893  0.4242124987537733  0.46905822745480136  1.0000
  C   C14       1.0  0.34574542731458285  0.9242124988150889  0.03094177248515912  1.0000
  C   C15       1.0  0.3457454270093857  0.5757875013688579  0.5309417719443925  1.0000
  C   C16       1.0  0.654254572891673  0.07578750130754226  0.9690582273609779  1.0000
  C   C17       1.0  0.5775557714443382  0.42144519790093066  0.5730295061958348  1.0000
  C   C18       1.0  0.42244422846303464  0.9214451979622462  0.9269704941876066  1.0000
  C   C19       1.0  0.42244422876823184  0.5785548017692704  0.4269704947283731  1.0000
  C   C20       1.0  0.5775557717432211  0.07855480216038492  0.07302950565853046  1.0000
  C   C21       1.0  0.5308322444544533  0.36614139031609916  0.6134842500383118  1.0000
  C   C22       1.0  0.4691677554466055  0.8661413903774148  0.8865157492670587  1.0000
  C   C23       1.0  0.46916775575180264  0.6338586098065321  0.38651574980782527  1.0000
  C   C24       1.0  0.5308322447596504  0.1338586097452165  0.11348425057907824  1.0000
  C   C25       1.0  0.38551358206963227  0.15832607953995267  0.554945574596132  1.0000
  C   C26       1.0  0.6144864178314265  0.6583260796012682  0.9450544247092383  1.0000
  C   C27       1.0  0.6144864169388428  0.8416739205826785  0.4450544248030619  1.0000
  C   C28       1.0  0.38551358237482936  0.3416739205213629  0.05494557513689858  1.0000
  C   C29       1.0  0.3042313963267642  0.16874963208186428  0.6541852368928027  1.0000
  C   C30       1.0  0.6957686035742946  0.6687496321431798  0.8458147624125678  1.0000
  C   C31       1.0  0.6957686026817109  0.8312503680407669  0.34581476250639126  1.0000
  C   C32       1.0  0.3042313966319613  0.33125036797945134  0.15418523743356924  1.0000
  C   C33       1.0  0.24170517543971223  0.12148160175231612  0.7117379149956843  1.0000
  C   C34       1.0  0.7582948244676606  0.6214816018136318  0.7882620853877571  1.0000
  C   C35       1.0  0.7582948247665438  0.8785183983703151  0.2882620848504527  1.0000
  C   C36       1.0  0.24170517573859526  0.3785183983089995  0.21173791445837992  1.0000
  C   C37       1.0  0.25968425925251765  0.0620216964951208  0.6710390314727364  1.0000
  C   C38       1.0  0.7403157406548553  0.5620216961040062  0.8289609689107049  1.0000
  C   C39       1.0  0.7403157409600524  0.9379783036275104  0.3289609694514716  1.0000
  C   C40       1.0  0.25968425955140073  0.43797830356619477  0.17103903093543196  1.0000
  C   C41       1.0  0.3393417909027331  0.049846317623632855  0.5724263530259697  1.0000
  C   C42       1.0  0.6606582090046398  0.5498463176849484  0.9275736473574717  1.0000
  C   C43       1.0  0.6606582093035227  0.9501536824989982  0.42757364682016724  1.0000
  C   C44       1.0  0.3393417912016162  0.4501536824376828  0.07242635248866537  1.0000
  C   C45       1.0  0.39986968225713604  0.09793458574080252  0.5160933798022299  1.0000
  C   C46       1.0  0.6001303176439227  0.5979345858021181  0.9839066195031404  1.0000
  C   C47       1.0  0.6001303179491198  0.9020654143818286  0.483906620043907  1.0000
  C   C48       1.0  0.39986968256233324  0.40206541432051307  0.016093380342996448  1.0000
  C   C49       1.0  0.45084843742168923  0.2091587188968933  0.4917696724835895  1.0000
  C   C50       1.0  0.549151561891983  0.7091587189582089  0.008230327456371034  1.0000
  C   C51       1.0  0.5491515627845667  0.7908412812257378  0.5082303273625475  1.0000
  C   C52       1.0  0.45084843712280614  0.2908412811644223  0.9917696730208939  1.0000
  C   C53       1.0  0.7672800387191738  0.37168967667691316  0.3017538753936875  1.0000
  C   C54       1.0  0.23271996058818425  0.8716896767382287  0.19824612346820206  1.0000
  C   C55       1.0  0.23271996148708207  0.6283103229932879  0.6982461244524495  1.0000
  C   C56       1.0  0.7672800384202908  0.12831032338440243  0.8017538759309919  1.0000
  C   C57       1.0  0.8278982052767253  0.3725289744424255  0.20601415680344323  1.0000
  C   C58       1.0  0.17210179523472768  0.8725289740513109  0.2939858435834603  1.0000
  C   C59       1.0  0.17210179492953057  0.6274710256802057  0.7939858430426938  1.0000
  C   C60       1.0  0.8278982049778424  0.1274710256188901  0.7060141573407477  1.0000
  C   C61       1.0  0.9639911852278046  0.164826168117527  0.3047637436091078  1.0000
  C   C62       1.0  0.036008814085867556  0.6648261681788427  0.1952362563308527  1.0000
  C   C63       1.0  0.036008814978451306  0.8351738320051042  0.6952362562370291  1.0000
  C   C64       1.0  0.9639911849226075  0.3351738319437886  0.8047637430683414  1.0000
  C   C65       1.0  0.9677581565859139  0.10196285922418191  0.3130690855634946  1.0000
  C   C66       1.0  0.032241842727758395  0.6019628592854975  0.18693091437646597  1.0000
  C   C67       1.0  0.03224184242256126  0.8980371404460191  0.6869309138356994  1.0000
  C   C68       1.0  0.9677581574784976  0.3980371403847035  0.8130690854696709  1.0000
  C   C69       1.0  0.036848469043151366  0.06872853887055953  0.2278095194385346  1.0000
  C   C70       1.0  0.9631515302705208  0.5687285389318751  0.27219048050142597  1.0000
  C   C71       1.0  0.9631515299653237  0.9312714612520716  0.7721904799606594  1.0000
  C   C72       1.0  0.036848469935735116  0.43127146119075604  0.727809519344711  1.0000
  C   C73       1.0  0.10164092584604167  0.09848677494455822  0.13361290224332603  1.0000
  C   C74       1.0  0.8983590746654113  0.5984867750058738  0.3663870981435775  1.0000
  C   C75       1.0  0.8983590743602142  0.9015132247256428  0.8663870976028111  1.0000
  C   C76       1.0  0.10164092554084454  0.4015132251167574  0.6336129017025596  1.0000
  C   C77       1.0  0.09719300888340511  0.16144188644220034  0.12458514727541437  1.0000
  C   C78       1.0  0.902806991628048  0.661441886503516  0.37541485311148914  1.0000
  C   C79       1.0  0.9028069913228508  0.8385581136804309  0.8754148525707226  1.0000
  C   C80       1.0  0.09719300857820798  0.3385581136191153  0.6245851467346478  1.0000
  C   C81       1.0  0.029048402121791203  0.19455768095154047  0.21076037111518436  1.0000
  C   C82       1.0  0.9709515983833479  0.694557681012856  0.28923962819364823  1.0000
  C   C83       1.0  0.9709515980844647  0.8054423191710907  0.7892396287309527  1.0000
  C   C84       1.0  0.029048401822908135  0.3054423191097751  0.7107603716524888  1.0000
  N   N1        1.0  0.5067355957984098  0.2574163090024231  0.5889209745618009  1.0000
  N   N2        1.0  0.4932644041026491  0.7574163090637387  0.9110790247435695  1.0000
  N   N3        1.0  0.49326440321006537  0.7425836911202082  0.4110790248373931  1.0000
  N   N4        1.0  0.5067355961036069  0.2425836910588925  0.08892097510256741  1.0000
  O   O1        1.0  0.4496872225493687  0.2069007580395349  0.3571289406257651  1.0000
  O   O2        1.0  0.5503127779557703  0.7069007581008505  0.14287105868306746  1.0000
  O   O3        1.0  0.5503127776568871  0.7930992420830962  0.6428710592203718  1.0000
  O   O4        1.0  0.4496872222504857  0.29309924202178067  0.8571289411630696  1.0000
  F   F1        1.0  0.47877926551576294  0.08423027252150325  0.42146468215523564  1.0000
  F   F2        1.0  0.5212207337979092  0.5842302725828189  0.07853531778472493  1.0000
  F   F3        1.0  0.521220734696807  0.915769727601128  0.5785353187689724  1.0000
  F   F4        1.0  0.47877926521056574  0.41576972753981234  0.9214646816144689  1.0000
  F   F5        1.0  0.8967735090357605  0.19682444021827133  0.3868548785726657  1.0000
  F   F6        1.0  0.10322649027791167  0.6968244402795869  0.11314512136729482  1.0000
  F   F7        1.0  0.10322649117049543  0.8031755594519296  0.6131451212734713  1.0000
  F   F8        1.0  0.8967735087305633  0.3031755593906141  0.8868548780318991  1.0000
  F   F9        1.0  0.9034497888951261  0.07325642102905537  0.40310671911617824  1.0000
  F   F10       1.0  0.09655021161632699  0.573256421090371  0.09689328127072527  1.0000
  F   F11       1.0  0.09655021131112984  0.9267435786411456  0.5968932807299586  1.0000
  F   F12       1.0  0.9034497885899289  0.4267435785798301  0.9031067185754116  1.0000
  F   F13       1.0  0.0399911875423709  0.007889546849993207  0.23562184620044346  1.0000
  F   F14       1.0  0.9600088129690821  0.5078895469113088  0.26437815418646005  1.0000
  F   F15       1.0  0.960008812663885  0.992110453272638  0.7643781536456935  1.0000
  F   F16       1.0  0.039991187237173764  0.49211045321132235  0.7356218456596769  1.0000
  F   F17       1.0  0.16787455176911548  0.0664030265704808  0.05068805161760682  1.0000
  F   F18       1.0  0.8321254475445568  0.5664030266317963  0.44931194832235366  1.0000
  F   F19       1.0  0.8321254472393596  0.9335969735521504  0.9493119477815872  1.0000
  F   F20       1.0  0.16787455266801332  0.4335969734908348  0.5506880526018542  1.0000
  F   F21       1.0  0.15698223958318108  0.1901362139867339  0.03133124000959706  1.0000
  F   F22       1.0  0.843017760928272  0.6901362140480495  0.4686687603773064  1.0000
  F   F23       1.0  0.8430177606230749  0.8098637856834671  0.9686687598365399  1.0000
  F   F24       1.0  0.15698223927798394  0.3098637860745817  0.5313312394688305  1.0000
  F   F25       1.0  0.024697634393754362  0.2553336860972972  0.20278911985727538  1.0000
  F   F26       1.0  0.9753023661176987  0.7553336861586128  0.2972108805296282  1.0000
  F   F27       1.0  0.9753023658125015  0.7446663140253341  0.7972108799888616  1.0000
  F   F28       1.0  0.02469763409487129  0.24466631396401844  0.7027891203945797  1.0000
