data_image0
_chemical_formula_structural       H40C84N4O4F24Br4
_chemical_formula_sum              "H40 C84 N4 O4 F24 Br4"
_cell_length_a       7.345679437513259
_cell_length_b       26.22953466475537
_cell_length_c       9.387221455998501
_cell_angle_alpha    90.0
_cell_angle_beta     99.44574739012548
_cell_angle_gamma    90.0

_space_group_name_H-M_alt    "P 1"
_space_group_IT_number       1

loop_
  _space_group_symop_operation_xyz
  'x, y, z'

loop_
  _atom_site_type_symbol
  _atom_site_label
  _atom_site_symmetry_multiplicity
  _atom_site_fract_x
  _atom_site_fract_y
  _atom_site_fract_z
  _atom_site_occupancy
  H   H1        1.0  0.3565951342089332  0.3494308578914883  0.7851992256530385  1.0000
  H   H2        1.0  0.6434048664142499  0.8494308581820887  0.7148007750739371  1.0000
  H   H3        1.0  0.6434048657472855  0.6505691419272134  0.21480077485078994  1.0000
  H   H4        1.0  0.3565951335419687  0.15056914201786256  0.2851992254298912  1.0000
  H   H5        1.0  0.6196569670256642  0.44796979321895974  0.5113957972949411  1.0000
  H   H6        1.0  0.3803430333753553  0.9479697931283106  0.9886042023521198  1.0000
  H   H7        1.0  0.3803430327083909  0.5520302069809916  0.4886042021289726  1.0000
  H   H8        1.0  0.6196569679429197  0.052030206690391094  0.011395798155136522  1.0000
  H   H9        1.0  0.7028411676606209  0.37161572801737347  0.3782950380416888  1.0000
  H   H10       1.0  0.29715883162863327  0.8716157279267243  0.12170496223899235  1.0000
  H   H11       1.0  0.29715883229559764  0.6283842721825779  0.6217049624621396  1.0000
  H   H12       1.0  0.7028411683275853  0.12838427227322702  0.8782950382648359  1.0000
  H   H13       1.0  0.6124724342629192  0.2851980004834664  0.4459748899854246  1.0000
  H   H14       1.0  0.38752756616622785  0.7851980003928172  0.05402510921876979  1.0000
  H   H15       1.0  0.3875275654711357  0.714801999716485  0.554025109438489  1.0000
  H   H16       1.0  0.6124724349298836  0.21480199980713408  0.9459748902085718  1.0000
  H   H17       1.0  0.4015236084210301  0.1239662853938902  0.5126607746680826  1.0000
  H   H18       1.0  0.5984763906179328  0.623966285303241  0.9873392249755503  1.0000
  H   H19       1.0  0.598476391313025  0.8760337148060611  0.48733922475583114  1.0000
  H   H20       1.0  0.4015236093382858  0.3760337145154607  0.012660775528277938  1.0000
  H   H21       1.0  0.29537955610868805  0.047498836937968206  0.6325798313647956  1.0000
  H   H22       1.0  0.7046204431524385  0.547498836847319  0.867420169358752  1.0000
  H   H23       1.0  0.7046204438475306  0.9525011632619831  0.36742016913903275  1.0000
  H   H24       1.0  0.29537955680378014  0.45250116297138265  0.13257983114507632  1.0000
  H   H25       1.0  0.06522174700840191  0.14502188844056174  0.9278323668777182  1.0000
  H   H26       1.0  0.9347782533926176  0.6450218883499126  0.5721676327693428  1.0000
  H   H27       1.0  0.9347782527256531  0.8549781117593895  0.07216763254619557  1.0000
  H   H28       1.0  0.06522174770349402  0.3549781114687891  0.42783236665799884  1.0000
  H   H29       1.0  0.17583367171772465  0.2206618635814819  0.8116882156172228  1.0000
  H   H30       1.0  0.8241663286832948  0.7206618634908327  0.6883117840298381  1.0000
  H   H31       1.0  0.8241663280163304  0.7793381362372197  0.1883117838066908  1.0000
  H   H32       1.0  0.17583367127292387  0.27933813632786897  0.31168821647399036  1.0000
  H   H33       1.0  0.3483378641304276  0.5127343135092339  0.8693804258525087  1.0000
  H   H34       1.0  0.6516621362705918  0.012734313599883118  0.630619573794552  1.0000
  H   H35       1.0  0.6516621356036273  0.4872656863094677  0.13061957357140486  1.0000
  H   H36       1.0  0.3483378648255197  0.9872656866000682  0.36938042563278956  1.0000
  H   H37       1.0  0.3942467112195869  0.2633203168976012  0.7685842638353572  1.0000
  H   H38       1.0  0.6057532891814326  0.763320316806952  0.7314157358117038  1.0000
  H   H39       1.0  0.6057532885144681  0.7366796829211004  0.23141573558855658  1.0000
  H   H40       1.0  0.39424671077478607  0.23667968301174966  0.26858426469212454  1.0000
  C   C1        1.0  0.47433989110031066  0.31193220255614884  0.6180569431232443  1.0000
  C   C2        1.0  0.5256601079386521  0.8119322024654997  0.8819430565203884  1.0000
  C   C3        1.0  0.5256601088559079  0.6880677972625528  0.381943057380584  1.0000
  C   C4        1.0  0.4743398917954028  0.188067797353202  0.1180569429035251  1.0000
  C   C5        1.0  0.4311912414238984  0.35467249910843063  0.6953198483051137  1.0000
  C   C6        1.0  0.5688087589771209  0.8546724990177814  0.8046801513419471  1.0000
  C   C7        1.0  0.5688087585323202  0.6453275010915207  0.3046801521987145  1.0000
  C   C8        1.0  0.43119124075693405  0.1453275008009202  0.1953198480819666  1.0000
  C   C9        1.0  0.48350210804514926  0.40377717391345785  0.6581572481855174  1.0000
  C   C10       1.0  0.5164978923558702  0.9037771738228088  0.8418427514615436  1.0000
  C   C11       1.0  0.5164978919110693  0.5962228259052439  0.341842752318311  1.0000
  C   C12       1.0  0.4835021073781849  0.09622282599589302  0.1581572479623701  1.0000
  C   C13       1.0  0.5802941215658207  0.40995837240104877  0.5416248969932389  1.0000
  C   C14       1.0  0.4197058788351987  0.9099583723103996  0.9583751026538221  1.0000
  C   C15       1.0  0.41970587975245444  0.5900416277989026  0.45837510351401745  1.0000
  C   C16       1.0  0.5802941208988563  0.09004162788955168  0.04162489677009164  1.0000
  C   C17       1.0  0.6260437372151324  0.3670510763172852  0.46745530140748315  1.0000
  C   C18       1.0  0.3739562620741218  0.867051076226636  0.032544698873197955  1.0000
  C   C19       1.0  0.37395626274108623  0.6329489238826662  0.5325446990963452  1.0000
  C   C20       1.0  0.6260437376599332  0.1329489235920657  0.9674553005507157  1.0000
  C   C21       1.0  0.5748253735149252  0.31815608041317234  0.5044230232346627  1.0000
  C   C22       1.0  0.4251746255240377  0.8181560803225232  0.9955769764089702  1.0000
  C   C23       1.0  0.42517462621912977  0.6818439194055295  0.495576976189251  1.0000
  C   C24       1.0  0.5748253742100173  0.18184391949617854  0.004423023014943394  1.0000
  C   C25       1.0  0.300187234480928  0.1775918364369292  0.6555710111064524  1.0000
  C   C26       1.0  0.6998127661422551  0.6775918367275298  0.844428989620523  1.0000
  C   C27       1.0  0.6998127668373472  0.8224081633817726  0.3444289894008038  1.0000
  C   C28       1.0  0.30018723381396356  0.3224081634724216  0.15557101088330527  1.0000
  C   C29       1.0  0.3293118936228561  0.12852424044448602  0.604275724104546  1.0000
  C   C30       1.0  0.6706881070003269  0.6285242403538368  0.8957242766224297  1.0000
  C   C31       1.0  0.6706881063333625  0.8714757597554653  0.3957242763992824  1.0000
  C   C32       1.0  0.32931189295589175  0.37147575946486483  0.10427572388139877  1.0000
  C   C33       1.0  0.2694702930900641  0.08563155041473351  0.6703677084425241  1.0000
  C   C34       1.0  0.7305297075331189  0.5856315503240843  0.8296322922844513  1.0000
  C   C35       1.0  0.7305297068661546  0.9143684494039681  0.32963229206130423  1.0000
  C   C36       1.0  0.26947029242309967  0.4143684494946174  0.17036770821937694  1.0000
  C   C37       1.0  0.17593787105262965  0.09213744738092323  0.7872882049700449  1.0000
  C   C38       1.0  0.8240621279863333  0.5921374476715238  0.712711794673588  1.0000
  C   C39       1.0  0.8240621286814254  0.9078625524377785  0.21271179445386873  1.0000
  C   C40       1.0  0.17593787174772174  0.4078625525284276  0.28728820475032574  1.0000
  C   C41       1.0  0.14011373600352708  0.14054329316613445  0.8376658290502393  1.0000
  C   C42       1.0  0.8598862632575994  0.6405432930754853  0.6623341716733083  1.0000
  C   C43       1.0  0.8598862639526915  0.8594567070338169  0.16233417145358905  1.0000
  C   C44       1.0  0.14011373669861915  0.35945670712446604  0.33766582883052004  1.0000
  C   C45       1.0  0.20391916408330082  0.18305063209724234  0.7718557189385713  1.0000
  C   C46       1.0  0.7960808351778257  0.6830506320065932  0.7281442817849763  1.0000
  C   C47       1.0  0.7960808358729178  0.8169493677214593  0.22814428156525698  1.0000
  C   C48       1.0  0.20391916477839295  0.3169493678121085  0.2718557187188521  1.0000
  C   C49       1.0  0.3714092348365134  0.22180887096779386  0.5812922086637142  1.0000
  C   C50       1.0  0.6285907655645061  0.7218088708771446  0.9187077909833467  1.0000
  C   C51       1.0  0.6285907648975417  0.7781911292321575  0.41870779076019954  1.0000
  C   C52       1.0  0.37140923439171253  0.2781911293228066  0.08129220952048163  1.0000
  C   C53       1.0  0.4361987057180483  0.44616978759158427  0.7393627696670011  1.0000
  C   C54       1.0  0.5638012935430782  0.9461697875009352  0.7606372310565467  1.0000
  C   C55       1.0  0.5638012942381704  0.5538302126083671  0.2606372308368274  1.0000
  C   C56       1.0  0.43619870641314035  0.05383021231776658  0.23936276944728174  1.0000
  C   C57       1.0  0.39225528676855353  0.4813682968979868  0.810641389721108  1.0000
  C   C58       1.0  0.607744713632466  0.9813682968073377  0.6893586099259529  1.0000
  C   C59       1.0  0.6077447129655015  0.5186317033019645  0.18935860970280569  1.0000
  C   C60       1.0  0.39225528746364563  0.018631703011364034  0.31064138950138875  1.0000
  C   C61       1.0  0.9499078293103351  0.32970923962370097  0.7954793726154765  1.0000
  C   C62       1.0  0.05009217131284795  0.8297092399143015  0.7045206281114992  1.0000
  C   C63       1.0  0.05009217064588349  0.6702907601950007  0.20452062788835185  1.0000
  C   C64       1.0  0.9499078300054272  0.17029076028564988  0.2954793723957572  1.0000
  C   C65       1.0  0.8910132801630329  0.30201400792078753  0.906126800905167  1.0000
  C   C66       1.0  0.10898672023798642  0.8020140078301384  0.593873198741894  1.0000
  C   C67       1.0  0.10898671979318562  0.6979859918979141  0.0938731995986615  1.0000
  C   C68       1.0  0.8910132794960686  0.19798599198856331  0.4061268006820197  1.0000
  C   C69       1.0  0.8252541358719591  0.32724391224269755  0.018023802726199717  1.0000
  C   C70       1.0  0.1747458647793516  0.8272439121520484  0.4819761975579094  1.0000
  C   C71       1.0  0.1747458652241525  0.6727560879572537  0.9819761967011421  1.0000
  C   C72       1.0  0.8252541351768671  0.1727560880479029  0.518023802945919  1.0000
  C   C73       1.0  0.8191005610472779  0.3802941175850643  0.018673947850486327  1.0000
  C   C74       1.0  0.18089943938186914  0.8802941174944152  0.48132605135370815  1.0000
  C   C75       1.0  0.18089943868677702  0.619705882614887  0.9813260515734273  1.0000
  C   C76       1.0  0.8191005603521858  0.11970588232428651  0.5186739480702056  1.0000
  C   C77       1.0  0.8810033355767225  0.40818470578459476  0.9096387731275938  1.0000
  C   C78       1.0  0.11899666482429705  0.9081847056939456  0.5903612265194671  1.0000
  C   C79       1.0  0.11899666415733265  0.5918152944153565  0.09036122629631992  1.0000
  C   C80       1.0  0.8810033351319216  0.0918152941247561  0.4096387739843612  1.0000
  C   C81       1.0  0.9462595365721291  0.38286973552352427  0.7973683238669913  1.0000
  C   C82       1.0  0.05374046382889031  0.8828697354328751  0.7026316757800696  1.0000
  C   C83       1.0  0.05374046474614604  0.6171302646764271  0.20263167664026502  1.0000
  C   C84       1.0  0.9462595359051648  0.1171302647670762  0.297368323643844  1.0000
  N   N1        1.0  0.4148355853934692  0.2642054301981889  0.6627355740128564  1.0000
  N   N2        1.0  0.5851644138676573  0.7642054301075397  0.8372644267106912  1.0000
  N   N3        1.0  0.5851644145627494  0.7357945700017624  0.33726442649097194  1.0000
  N   N4        1.0  0.4148355860885613  0.23579457009241162  0.16273557379313716  1.0000
  O   O1        1.0  0.38960268124534847  0.21811765908632286  0.45147890143682756  1.0000
  O   O2        1.0  0.6103973180439057  0.7181176589956737  0.048521098843853576  1.0000
  O   O3        1.0  0.6103973187108701  0.7818823411136284  0.5485210990670009  1.0000
  O   O4        1.0  0.38960268191231295  0.281882340823028  0.9514789016599747  1.0000
  F   F1        1.0  0.013124242029114759  0.305061023471063  0.6874788568368018  1.0000
  F   F2        1.0  0.9868757585940684  0.805061023380414  0.8125211438901738  1.0000
  F   F3        1.0  0.9868757579271038  0.6949389763476387  0.31252114366702666  1.0000
  F   F4        1.0  0.013124241362150343  0.19493897643828778  0.18747885661365452  1.0000
  F   F5        1.0  0.9006628907171343  0.2506854961035705  0.9063750117441346  1.0000
  F   F6        1.0  0.09933710854399218  0.7506854960129213  0.5936249889794132  1.0000
  F   F7        1.0  0.09933710923908429  0.7493145037151311  0.09362498875969384  1.0000
  F   F8        1.0  0.9006628914122264  0.24931450380578035  0.40637501152441524  1.0000
  F   F9        1.0  0.771994775888236  0.30060899366982874  0.1265913221926781  1.0000
  F   F10       1.0  0.2280052231788546  0.8006089939604292  0.37340867700808844  1.0000
  F   F11       1.0  0.22800522384581903  0.699391006148873  0.8734086772312356  1.0000
  F   F12       1.0  0.7719947765552004  0.19939100623952213  0.6265913224158254  1.0000
  F   F13       1.0  0.755661906346615  0.40490204099086147  0.12695433268427161  1.0000
  F   F14       1.0  0.24433809294263925  0.9049020409002123  0.3730456675964095  1.0000
  F   F15       1.0  0.24433809360960362  0.5950979588278402  0.8730456678195566  1.0000
  F   F16       1.0  0.7556619070135794  0.0950979589184894  0.6269543329074189  1.0000
  F   F17       1.0  0.8795350191314175  0.4593967096256293  0.9150030031940879  1.0000
  F   F18       1.0  0.12046498149176559  0.9593967099162297  0.5849969975328877  1.0000
  F   F19       1.0  0.12046498082480118  0.5406032901930724  0.0849969973097405  1.0000
  F   F20       1.0  0.8795350184644529  0.040603290283721574  0.4150030029709406  1.0000
  F   F21       1.0  0.006996482097782381  0.40920012334119316  0.6917947429094462  1.0000
  F   F22       1.0  0.9930035185254007  0.9092001232505441  0.8082052578175294  1.0000
  F   F23       1.0  0.9930035178584362  0.5907998768587581  0.30820525759438216  1.0000
  F   F24       1.0  0.006996482792874494  0.09079987656815766  0.1917947426897269  1.0000
  Br  Br1       1.0  0.09328144842584266  0.03356698474651386  0.8767591074434902  1.0000
  Br  Br2       1.0  0.9067185506131202  0.5335669846558647  0.6232408922001429  1.0000
  Br  Br3       1.0  0.906718551530376  0.9664330154534375  0.12324089306033824  1.0000
  Br  Br4       1.0  0.09328144912093475  0.4664330155440866  0.3767591072237708  1.0000
