data_image0
_chemical_formula_structural       H32C38N2O12Cl2
_chemical_formula_sum              "H32 C38 N2 O12 Cl2"
_cell_length_a       8.386098196861942
_cell_length_b       8.713520624927261
_cell_length_c       12.896693895426706
_cell_angle_alpha    103.29632564020673
_cell_angle_beta     99.54392795162032
_cell_angle_gamma    102.94239515855907

_space_group_name_H-M_alt    "P 1"
_space_group_IT_number       1

loop_
  _space_group_symop_operation_xyz
  'x, y, z'

loop_
  _atom_site_type_symbol
  _atom_site_label
  _atom_site_symmetry_multiplicity
  _atom_site_fract_x
  _atom_site_fract_y
  _atom_site_fract_z
  _atom_site_occupancy
  H   H1        1.0  0.969003032425265  0.07051663480993231  0.7800613324334881  1.0000
  H   H2        1.0  0.030996966927056446  0.9294833654278742  0.21993866750439936  1.0000
  H   H3        1.0  0.5313376451975131  0.7486166164824005  0.03348890020867102  1.0000
  H   H4        1.0  0.46866235534615547  0.2513833837395529  0.9665110997405199  1.0000
  H   H5        1.0  0.7063383561549433  0.10571108662665885  0.1718254371496978  1.0000
  H   H6        1.0  0.29366164319737814  0.8942889136111479  0.8281745627881896  1.0000
  H   H7        1.0  0.19137272209584183  0.546777706995195  0.2568455599454994  1.0000
  H   H8        1.0  0.808627278154926  0.4532222920518039  0.7431544400094372  1.0000
  H   H9        1.0  0.2386064153343744  0.7830244207153885  0.4224242428940819  1.0000
  H   H10       1.0  0.7613935852092941  0.21697557950656493  0.5775757570551089  1.0000
  H   H11       1.0  0.4306050430841994  0.054579256524090784  0.43457896403113133  1.0000
  H   H12       1.0  0.5693949559752213  0.9454207425387614  0.5654210359125018  1.0000
  H   H13       1.0  0.5828437065066251  0.08680878964696863  0.2925763365315195  1.0000
  H   H14       1.0  0.4171562943106785  0.9131912109241982  0.707423664236098  1.0000
  H   H15       1.0  0.6104562639437142  0.7768423809372422  0.8955492540009157  1.0000
  H   H16       1.0  0.38954373511570656  0.22315761812560989  0.10445074594271753  1.0000
  H   H17       1.0  0.7619750354603179  0.8224980358632338  0.7517964025368967  1.0000
  H   H18       1.0  0.23802496389200364  0.17750196437457286  0.24820359740099068  1.0000
  H   H19       1.0  0.03880383285616774  0.2895397779384426  0.9381837339816677  1.0000
  H   H20       1.0  0.9611961662032529  0.7104602211244094  0.06181626596196554  1.0000
  H   H21       1.0  0.9046239449669773  0.26056435232311553  0.09781485777455436  1.0000
  H   H22       1.0  0.09537605438534412  0.7394356479146911  0.9021851421633331  1.0000
  H   H23       1.0  0.28031752890714745  0.4915231650208529  0.7700114240449377  1.0000
  H   H24       1.0  0.7196824701522733  0.5084768340419992  0.2299885758986954  1.0000
  H   H25       1.0  0.2309647671860264  0.12822334756673795  0.5461881061999743  1.0000
  H   H26       1.0  0.7690352330647414  0.8717766514802611  0.45381189375496234  1.0000
  H   H27       1.0  0.41265254094001935  0.3626540753969369  0.5255876324855299  1.0000
  H   H28       1.0  0.5873474586859374  0.637345925190083  0.47441236827078415  1.0000
  H   H29       1.0  0.9219457038876707  0.0805583726931617  0.3837739680421148  1.0000
  H   H30       1.0  0.07805429665599785  0.9194416275287919  0.6162260319070761  1.0000
  H   H31       1.0  0.018088117050497267  0.5722059983173287  0.40252582406044085  1.0000
  H   H32       1.0  0.9819118823018242  0.42779400192047806  0.5974741758774466  1.0000
  C   C1        1.0  0.5623432766316357  0.8566989291460505  0.10349387114911822  1.0000
  C   C2        1.0  0.4376567227206858  0.14330107109175624  0.8965061287887692  1.0000
  C   C3        1.0  0.6718571491227502  0.9963880158408244  0.10252490052563679  1.0000
  C   C4        1.0  0.3281428502295714  0.003611984396982261  0.8974750994122507  1.0000
  C   C5        1.0  0.47721207080365946  0.8365477365630779  0.1904257085195735  1.0000
  C   C6        1.0  0.5227879297400092  0.16345226365887572  0.8095742914296175  1.0000
  C   C7        1.0  0.361801523891245  0.6864341814288555  0.18304309698996227  1.0000
  C   C8        1.0  0.6381984766524236  0.31356581879309814  0.8169569029592286  1.0000
  C   C9        1.0  0.2778397135892585  0.6652349358952275  0.26560036917037755  1.0000
  C   C10       1.0  0.7221602869544101  0.33476506432672615  0.7343996307788134  1.0000
  C   C11       1.0  0.3040596174005771  0.797473587807601  0.357483318512783  1.0000
  C   C12       1.0  0.6959403831430915  0.20252641241435249  0.6425166814364079  1.0000
  C   C13       1.0  0.4131916622615759  0.9488281281121251  0.36551013981391023  1.0000
  C   C14       1.0  0.5868083370907455  0.05117187212568168  0.6344898601239772  1.0000
  C   C15       1.0  0.49991606237160363  0.9670525353592209  0.28447821523720745  1.0000
  C   C16       1.0  0.5000839369807178  0.03294746487858601  0.7155217847006801  1.0000
  C   C17       1.0  0.7495085056177294  0.013809884369340433  0.01214989084769077  1.0000
  C   C18       1.0  0.2504914949259392  0.9861901158526131  0.9878501091015001  1.0000
  C   C19       1.0  0.7083183149339287  0.8905337821088664  0.9120154114080149  1.0000
  C   C20       1.0  0.2916816856097397  0.10946621811308692  0.08798458854117583  1.0000
  C   C21       1.0  0.7889187017579855  0.9141081423807779  0.8299236821076369  1.0000
  C   C22       1.0  0.2110812987856831  0.08589185784117562  0.17007631784155394  1.0000
  C   C23       1.0  0.9459742725441301  0.1792061572992462  0.9368574924723619  1.0000
  C   C24       1.0  0.0540257279995385  0.8207938429227075  0.06314250747682906  1.0000
  C   C25       1.0  0.8703122578471123  0.1616250070492825  0.02225146346036227  1.0000
  C   C26       1.0  0.12968774150520918  0.838374993188524  0.9777485364775251  1.0000
  C   C27       1.0  0.25437026772306814  0.24321897272716883  0.6094820756492177  1.0000
  C   C28       1.0  0.7456297325276997  0.75678102631983  0.3905179243057188  1.0000
  C   C29       1.0  0.35860327630756195  0.37711688972122137  0.5976767276715763  1.0000
  C   C30       1.0  0.6413967230447595  0.6228831105165854  0.4023232722663111  1.0000
  C   C31       1.0  0.4153613121351823  0.5506926961045051  0.6664378961758354  1.0000
  C   C32       1.0  0.5846386884084863  0.44930730411744846  0.33356210377335543  1.0000
  C   C33       1.0  0.15950401957446672  0.2261297551394907  0.695798713274124  1.0000
  C   C34       1.0  0.8404959797778548  0.7738702450983159  0.3042012866637634  1.0000
  C   C35       1.0  0.9979189899378254  0.4792399591112168  0.4463222411764415  1.0000
  C   C36       1.0  0.002081009414496236  0.5207600411265898  0.553677758761446  1.0000
  C   C37       1.0  0.9746474773207  0.309432208953268  0.3804895274484621  1.0000
  C   C38       1.0  0.02535252322296863  0.6905677912686855  0.6195104725007288  1.0000
  N   N1        1.0  0.906309038713368  0.05580634732819185  0.8441178401004855  1.0000
  N   N2        1.0  0.09369096063895352  0.9441936529096148  0.15588215983740192  1.0000
  O   O1        1.0  0.3625286584488494  0.5942471924759978  0.7577185894349391  1.0000
  O   O2        1.0  0.6374713420948191  0.40575280774595585  0.24228141051425178  1.0000
  O   O3        1.0  0.5118027171977586  0.653065849095978  0.6367751658578897  1.0000
  O   O4        1.0  0.48819728334591  0.3469341511259756  0.3632248340913011  1.0000
  O   O5        1.0  0.17004938627409794  0.3462962070213488  0.7766933365305809  1.0000
  O   O6        1.0  0.8299506130782236  0.6537037932164578  0.22330666340730643  1.0000
  O   O7        1.0  0.0639374667265628  0.0824569891131598  0.683086053764928  1.0000
  O   O8        1.0  0.9360625326257587  0.917543011124647  0.3169139461729594  1.0000
  O   O9        1.0  0.9205118054042684  0.19455613509206823  0.4291013776190802  1.0000
  O   O10       1.0  0.07948819394805318  0.8054438651457384  0.5708986223188073  1.0000
  O   O11       1.0  0.006698375356019595  0.2813042959809753  0.28898093552009224  1.0000
  O   O12       1.0  0.993301625187649  0.7186957042409782  0.7110190644290986  1.0000
  Cl  Cl1       1.0  0.31672765894643135  0.5225611026515775  0.06653465961220915  1.0000
  Cl  Cl2       1.0  0.6832723415972374  0.47743889757037605  0.9334653403369818  1.0000
