data_image0
_chemical_formula_structural       H104C88N16O16S8
_chemical_formula_sum              "H104 C88 N16 O16 S8"
_cell_length_a       14.96608265808905
_cell_length_b       7.207182429823288
_cell_length_c       20.943576876733147
_cell_angle_alpha    90.0
_cell_angle_beta     95.97154595555986
_cell_angle_gamma    90.0

_space_group_name_H-M_alt    "P 1"
_space_group_IT_number       1

loop_
  _space_group_symop_operation_xyz
  'x, y, z'

loop_
  _atom_site_type_symbol
  _atom_site_label
  _atom_site_symmetry_multiplicity
  _atom_site_fract_x
  _atom_site_fract_y
  _atom_site_fract_z
  _atom_site_occupancy
  H   H1        1.0  0.7276634624277803  0.9752382277594626  0.29627219008718453  1.0000
  H   H2        1.0  0.7723365372850901  0.4752382284409554  0.2037278098796058  1.0000
  H   H3        1.0  0.27233653731686674  0.024761772265056388  0.7037278100445788  1.0000
  H   H4        1.0  0.227663462459557  0.5247617715835634  0.7962721902521576  1.0000
  H   H5        1.0  0.7982778389605459  0.8063292939488543  0.263975780372795  1.0000
  H   H6        1.0  0.7017221607523244  0.30632929463034725  0.2360242195939953  1.0000
  H   H7        1.0  0.20172216078410107  0.19367070607566458  0.7360242197589684  1.0000
  H   H8        1.0  0.2982778389870585  0.6936707053941716  0.7639757800599181  1.0000
  H   H9        1.0  0.681196633431144  0.2016361225971675  0.543710902246758  1.0000
  H   H10       1.0  0.8188033665217278  0.7016361219156746  0.9562890979739882  1.0000
  H   H11       1.0  0.3188033663135031  0.7983638774273514  0.45628909788500543  1.0000
  H   H12       1.0  0.1811966332229192  0.29836387810884435  0.04371090215777532  1.0000
  H   H13       1.0  0.778918489620407  0.20277338255691033  0.45416081631510524  1.0000
  H   H14       1.0  0.7210815107642657  0.7027733818754174  0.04583918369788698  1.0000
  H   H15       1.0  0.22108151079604255  0.7972266174676086  0.5458391838628601  1.0000
  H   H16       1.0  0.2789184896469195  0.2972266181491015  0.9541608160022282  1.0000
  H   H17       1.0  0.610136532269629  0.9295574207026509  0.5008049622370682  1.0000
  H   H18       1.0  0.8898634676779786  0.4295574199966391  0.9991950375058279  1.0000
  H   H19       1.0  0.38986346746975387  0.07044257932186795  0.49919503741684523  1.0000
  H   H20       1.0  0.1101365320614043  0.5704425800278798  0.0008049621480854779  1.0000
  H   H21       1.0  0.5369370242606061  0.7852467014823103  0.540450686137004  1.0000
  H   H22       1.0  0.9630629756922657  0.2852467007762986  0.9595493140837422  1.0000
  H   H23       1.0  0.46306297548404096  0.21475329854220848  0.4595493139947595  1.0000
  H   H24       1.0  0.03693702472418377  0.7147532992482203  0.04045068609422316  1.0000
  H   H25       1.0  0.5174334724074682  0.8249141433410021  0.4566475556291828  1.0000
  H   H26       1.0  0.9825665273054022  0.3249141426349903  0.04335244433760753  1.0000
  H   H27       1.0  0.482566527337179  0.17508585668351673  0.5433524445025807  1.0000
  H   H28       1.0  0.017433472433980704  0.6750858573895285  0.9566475553163059  1.0000
  H   H29       1.0  0.5862946833298611  0.4739936810623733  0.5625922968360235  1.0000
  H   H30       1.0  0.9137053172948131  0.9739936817683852  0.9374077034309244  1.0000
  H   H31       1.0  0.4137053170865883  0.5260063175746409  0.4374077033419418  1.0000
  H   H32       1.0  0.08629468312163643  0.02600631825613378  0.06259229674704085  1.0000
  H   H33       1.0  0.28830285747316103  0.13888940785762008  0.21184714235706217  1.0000
  H   H34       1.0  0.21169714273506374  0.6388894071761271  0.2881528577319205  1.0000
  H   H35       1.0  0.7116971429432886  0.8611105921668988  0.7881528578209032  1.0000
  H   H36       1.0  0.7883028576813859  0.3611105928483917  0.7118471424460449  1.0000
  H   H37       1.0  0.19659184662687784  0.29112378248089454  0.21877017992869421  1.0000
  H   H38       1.0  0.303408153581347  0.7911237831869065  0.2812298201602884  1.0000
  H   H39       1.0  0.8034081531177694  0.7088762175436244  0.7812298202030692  1.0000
  H   H40       1.0  0.6965918468351026  0.2088762168376125  0.7187701800176769  1.0000
  H   H41       1.0  0.5575938521304534  0.7422209819283233  0.038340988008482096  1.0000
  H   H42       1.0  0.9424061475824169  0.24222098260981628  0.4616590119583083  1.0000
  H   H43       1.0  0.4424061476089295  0.2577790167086908  0.9616590116454312  1.0000
  H   H44       1.0  0.05759385216223009  0.7577790174147027  0.5383409881734551  1.0000
  H   H45       1.0  0.5242527192843571  0.26214647796091994  0.082428096019405  1.0000
  H   H46       1.0  0.9757472811003157  0.7621464772794271  0.41757190399358723  1.0000
  H   H47       1.0  0.4757472811268281  0.7378535220635989  0.9175719036807102  1.0000
  H   H48       1.0  0.02425271931613387  0.2378535227450919  0.5824280961843781  1.0000
  H   H49       1.0  0.5841515393776825  0.3961665876785649  0.14256796302413718  1.0000
  H   H50       1.0  0.9158484603351879  0.896166586997072  0.35743203694265313  1.0000
  H   H51       1.0  0.41584846036696466  0.6038334123459539  0.8574320371076263  1.0000
  H   H52       1.0  0.0841515394094592  0.10383341302744693  0.6425679631891102  1.0000
  H   H53       1.0  0.6031265519178252  0.42875186802726256  0.061157672030685485  1.0000
  H   H54       1.0  0.8968734477950453  0.9287518673457696  0.4388423279361048  1.0000
  H   H55       1.0  0.3968734478215578  0.5712481319972562  0.9388423276232278  1.0000
  H   H56       1.0  0.1031265519496018  0.07124813267874926  0.5611576721956586  1.0000
  H   H57       1.0  0.29434928610651084  0.9398805602546804  0.0725919346710601  1.0000
  H   H58       1.0  0.2056507134299115  0.4398805609361732  0.42740806537172066  1.0000
  H   H59       1.0  0.7056507136381363  0.06011943976983858  0.9274080654607033  1.0000
  H   H60       1.0  0.7943492863147357  0.5601194390883456  0.5725919347600428  1.0000
  H   H61       1.0  0.4412396086975146  0.9899751101728309  0.029592335286130624  1.0000
  H   H62       1.0  0.05876039083890774  0.48997511085432377  0.4704076647566502  1.0000
  H   H63       1.0  0.5587603910471325  0.010024889851688064  0.9704076648456328  1.0000
  H   H64       1.0  0.9412396089004751  0.5100248891701952  0.5295923348972632  1.0000
  H   H65       1.0  0.4332255753099318  0.20389460712402568  0.17225428679557378  1.0000
  H   H66       1.0  0.06677442422649055  0.7038946064425328  0.32774571324720697  1.0000
  H   H67       1.0  0.5667744244294511  0.7961053929004932  0.8277457128583395  1.0000
  H   H68       1.0  0.9332255755181565  0.2961053935819862  0.6722542868845565  1.0000
  H   H69       1.0  0.4143302338593166  0.6043451102301006  0.26151995285687496  1.0000
  H   H70       1.0  0.08566976634890815  0.10434510952408887  0.23848004723210767  1.0000
  H   H71       1.0  0.5856697658800664  0.39565488979441815  0.7384800467970384  1.0000
  H   H72       1.0  0.9143302340675413  0.89565489050043  0.7615199529458576  1.0000
  H   H73       1.0  0.4777845411473876  0.7117266906931577  0.3272580928301739  1.0000
  H   H74       1.0  0.0222154590608371  0.21172668998714586  0.1727419072588088  1.0000
  H   H75       1.0  0.5222154592637976  0.2882733093313612  0.6727419068699414  1.0000
  H   H76       1.0  0.9777845413556124  0.7882733100373731  0.8272580929191565  1.0000
  H   H77       1.0  0.5455973153663349  0.42755374378327676  0.23434561957384176  1.0000
  H   H78       1.0  0.9544026843465354  0.9275537444892886  0.2656543803929486  1.0000
  H   H79       1.0  0.45440268437831205  0.5724462562412421  0.7656543805579216  1.0000
  H   H80       1.0  0.0455973153981117  0.0724462555352303  0.7343456197388148  1.0000
  H   H81       1.0  0.6161318684918177  0.5419984602909209  0.29419890848915664  1.0000
  H   H82       1.0  0.8838681318928551  0.041998460972413824  0.20580109152383555  1.0000
  H   H83       1.0  0.3838681319246318  0.45800153973359803  0.7058010916888087  1.0000
  H   H84       1.0  0.11613186851833025  0.9580015390521051  0.7941989081762797  1.0000
  H   H85       1.0  0.5773246312840832  0.8618630928913924  0.25270667185087187  1.0000
  H   H86       1.0  0.9226753691005896  0.36186309218538065  0.24729332816212035  1.0000
  H   H87       1.0  0.42267536912710213  0.13813690713312643  0.7472933278492434  1.0000
  H   H88       1.0  0.07732463131585993  0.6381369078391382  0.752706672015845  1.0000
  H   H89       1.0  0.5212896288642631  0.7465972524483376  0.18725217947884634  1.0000
  H   H90       1.0  0.9787103715204097  0.2465972517423257  0.3127478205341459  1.0000
  H   H91       1.0  0.4787103715521865  0.25340274757618136  0.8127478206991189  1.0000
  H   H92       1.0  0.02128962889603974  0.7534027482821932  0.6872521796438193  1.0000
  H   H93       1.0  0.5308879261613483  0.3998615572813606  0.3792777519313186  1.0000
  H   H94       1.0  0.9691120735515221  0.8998615579873723  0.12072224803547177  1.0000
  H   H95       1.0  0.46911207358329876  0.6001384427431583  0.6207222482004447  1.0000
  H   H96       1.0  0.03088792618786086  0.1001384420371465  0.8792777516184415  1.0000
  H   H97       1.0  0.458876874774265  0.28674046621165805  0.3202364579374602  1.0000
  H   H98       1.0  0.041123124762157306  0.7867404655301651  0.17976354210532056  1.0000
  H   H99       1.0  0.541123124970382  0.7132595338128608  0.6797635421943032  1.0000
  H   H100      1.0  0.9588768749772255  0.21325953449435378  0.8202364575485928  1.0000
  H   H101      1.0  0.6230298540857158  0.9429743975783662  0.37933033412480055  1.0000
  H   H102      1.0  0.8769701456271546  0.44297439687235435  0.12066966584198978  1.0000
  H   H103      1.0  0.37697014565893133  0.05702560244615275  0.6206696660069628  1.0000
  H   H104      1.0  0.12302985411222826  0.5570256017646599  0.8793303338119236  1.0000
  C   C1        1.0  0.7456132619364609  0.7392173795898529  0.3482445601025034  1.0000
  C   C2        1.0  0.7543867377764096  0.23921737888384112  0.15175543986428697  1.0000
  C   C3        1.0  0.25438673780818616  0.26078262043466593  0.65175544002926  1.0000
  C   C4        1.0  0.24561326196823757  0.7607826211406779  0.8482445602674764  1.0000
  C   C5        1.0  0.6825060007395725  0.6367063848711977  0.43448372832623283  1.0000
  C   C6        1.0  0.8174939989732979  0.13670638555269063  0.06551627164055752  1.0000
  C   C7        1.0  0.31749399900507463  0.36329361515332126  0.5655162718055305  1.0000
  C   C8        1.0  0.18250600077134915  0.8632936144718283  0.9344837284912059  1.0000
  C   C9        1.0  0.627160473978071  0.6366659640822366  0.4849561016367835  1.0000
  C   C10       1.0  0.8728395257347993  0.13666596476372952  0.015043898330006831  1.0000
  C   C11       1.0  0.3728395257665759  0.3633340359422823  0.5150438984949799  1.0000
  C   C12       1.0  0.1271604740098478  0.8633340352607893  0.9849561018017564  1.0000
  C   C13       1.0  0.6822872642686046  0.3227489303412892  0.5126133737574168  1.0000
  C   C14       1.0  0.8177127356842671  0.8227489296597963  0.9873866264633292  1.0000
  C   C15       1.0  0.3177127361478448  0.6772510696832296  0.48738662642054853  1.0000
  C   C16       1.0  0.18228726406037993  0.1772510703647226  0.01261337366843411  1.0000
  C   C17       1.0  0.737390990777122  0.48115535769572937  0.42455633203584486  1.0000
  C   C18       1.0  0.7626090089357485  0.9811553570142364  0.07544366793094552  1.0000
  C   C19       1.0  0.26260900896752515  0.5188446423287896  0.5754436680959185  1.0000
  C   C20       1.0  0.2373909908036345  0.018844643010282464  0.9245563317229678  1.0000
  C   C21       1.0  0.7377291276042709  0.32296407960594276  0.4629735616589362  1.0000
  C   C22       1.0  0.762270872780402  0.8229640803119546  0.03702643835405606  1.0000
  C   C23       1.0  0.2622708728121786  0.6770359204185762  0.5370264385190291  1.0000
  C   C24       1.0  0.23772912696424517  0.17703591971256435  0.9629735617777072  1.0000
  C   C25       1.0  0.5699885498865935  0.8017110065218195  0.4965634038083328  1.0000
  C   C26       1.0  0.9300114504980793  0.30171100581580756  0.0034365962046594986  1.0000
  C   C27       1.0  0.43001145052985595  0.1982889935026995  0.5034365963696324  1.0000
  C   C28       1.0  0.0699885499183702  0.6982889942087114  0.9965634039733058  1.0000
  C   C29       1.0  0.6285724020215929  0.4770645954197531  0.5231598383146694  1.0000
  C   C30       1.0  0.8714275979312789  0.9770645961257649  0.9768401619060766  1.0000
  C   C31       1.0  0.3714275977230541  0.5229354046047657  0.47684016181709404  1.0000
  C   C32       1.0  0.12857240181336818  0.02293540389875395  0.023159838225686697  1.0000
  C   C33       1.0  0.4797643394888477  0.5471812304460696  0.08641027722252491  1.0000
  C   C34       1.0  0.0202356600475746  0.04718123112756249  0.4135897228202558  1.0000
  C   C35       1.0  0.5202356602505351  0.45281876957844935  0.9135897224313884  1.0000
  C   C36       1.0  0.9797643396970724  0.9528187688969564  0.5864102773115075  1.0000
  C   C37       1.0  0.2907372255847203  0.38078815913464953  0.1630538500275468  1.0000
  C   C38       1.0  0.20926277462350446  0.8807881598406614  0.33694615006143586  1.0000
  C   C39       1.0  0.7092627748317293  0.6192118408898695  0.8369461501504183  1.0000
  C   C40       1.0  0.7907372251211426  0.11921184018385757  0.6630538500703276  1.0000
  C   C41       1.0  0.3968280511414678  0.5200570661969355  0.1112972578971379  1.0000
  C   C42       1.0  0.10317194906675696  0.02005706549092366  0.38870274219184475  1.0000
  C   C43       1.0  0.6031719492749816  0.4799429338275834  0.8887027422808275  1.0000
  C   C44       1.0  0.8968280506726259  0.9799429345335952  0.6112972574620686  1.0000
  C   C45       1.0  0.3308640500907906  0.6618192735433438  0.10515168262762369  1.0000
  C   C46       1.0  0.16913594944036753  0.16181927422483677  0.39484831693730704  1.0000
  C   C47       1.0  0.6691359496485924  0.33818072648117503  0.8948483170262898  1.0000
  C   C48       1.0  0.8308640502990153  0.8381807257996822  0.6051516827166064  1.0000
  C   C49       1.0  0.4934334972645033  0.7186629810516669  0.057561490389492424  1.0000
  C   C50       1.0  0.006566502938457208  0.21866298173315982  0.44243850922164013  1.0000
  C   C51       1.0  0.5065665024748796  0.281337018972852  0.942438509264421  1.0000
  C   C52       1.0  0.9934334974727281  0.781337018291359  0.557561490478475  1.0000
  C   C53       1.0  0.5512658272405354  0.40124236040337113  0.0932198574984308  1.0000
  C   C54       1.0  0.9487341724723349  0.901242361109383  0.4067801424683596  1.0000
  C   C55       1.0  0.4487341724988475  0.5987576396211477  0.9067801421554826  1.0000
  C   C56       1.0  0.051265827272312096  0.09875763891513589  0.5932198576634039  1.0000
  C   C57       1.0  0.34533424020434483  0.8315698719099787  0.07608962215395873  1.0000
  C   C58       1.0  0.1546657600038799  0.3315698725914716  0.42391037793502395  1.0000
  C   C59       1.0  0.6546657602121047  0.16843012811454025  0.9239103780240066  1.0000
  C   C60       1.0  0.8453342404125695  0.6684301274330474  0.5760896222429415  1.0000
  C   C61       1.0  0.42800163103130245  0.8583515444816736  0.052374666589033524  1.0000
  C   C62       1.0  0.07199836917692226  0.35835154516316653  0.4476253334999491  1.0000
  C   C63       1.0  0.571998369385147  0.14164845554284533  0.9476253335889318  1.0000
  C   C64       1.0  0.9280016312395273  0.6416484548613525  0.5523746666780162  1.0000
  C   C65       1.0  0.4820286042348395  0.6539073106431071  0.27897214967816975  1.0000
  C   C66       1.0  0.01797139530158282  0.1539073113246  0.221027850364611  1.0000
  C   C67       1.0  0.5179713955098075  0.3460926893814118  0.7210278504535935  1.0000
  C   C68       1.0  0.9820286044378  0.8460926886999188  0.7789721492893024  1.0000
  C   C69       1.0  0.5916066826084332  0.1809374957131443  0.333076588777207  1.0000
  C   C70       1.0  0.9083933167866578  0.6809374950316514  0.16692874470888389  1.0000
  C   C71       1.0  0.4083933171362138  0.8190625043113746  0.6669234113545564  1.0000
  C   C72       1.0  0.09160668295798925  0.31906250499286753  0.8330712554228794  1.0000
  C   C73       1.0  0.5472808529782369  0.4909400926717981  0.2821545907655288  1.0000
  C   C74       1.0  0.9527191467346335  0.99094009337781  0.2178454092012615  1.0000
  C   C75       1.0  0.45271914676114594  0.5090599073527208  0.7178454088883844  1.0000
  C   C76       1.0  0.04728085301001365  0.009059906646708955  0.7821545909305018  1.0000
  C   C77       1.0  0.5114237676538126  0.8045922226145428  0.23472059068657766  1.0000
  C   C78       1.0  0.9885762327308603  0.3045922219085309  0.2652794093264146  1.0000
  C   C79       1.0  0.4885762327626369  0.19540777740997614  0.7652794094913876  1.0000
  C   C80       1.0  0.011423767685589314  0.695407778115988  0.7347205908515506  1.0000
  C   C81       1.0  0.4473302131036239  0.9639147638684561  0.22167908339357506  1.0000
  C   C82       1.0  0.052669786432798384  0.4639147631624443  0.27832091664920566  1.0000
  C   C83       1.0  0.5526697866410231  0.03608523615606282  0.7783209167381884  1.0000
  C   C84       1.0  0.9473302133118486  0.5360852368620747  0.7216790834825577  1.0000
  C   C85       1.0  0.5274401063959803  0.34267844668121655  0.3302694873700373  1.0000
  C   C86       1.0  0.9725598933168901  0.8426784459997236  0.16973051259675298  1.0000
  C   C87       1.0  0.4725598933486668  0.6573215533433024  0.669730512761726  1.0000
  C   C88       1.0  0.02744010642249278  0.15732155402479533  0.8302694870571604  1.0000
  N   N1        1.0  0.7621608453215691  0.8511547806276925  0.3000429247813734  1.0000
  N   N2        1.0  0.7378391550631037  0.35115478130918537  0.1999570752316188  1.0000
  N   N3        1.0  0.23783915509488038  0.14884521939682646  0.6999570753965919  1.0000
  N   N4        1.0  0.26216084535334583  0.6488452187153334  0.8000429249463465  1.0000
  N   N5        1.0  0.6882757708593074  0.7795915844657983  0.39065878763890166  1.0000
  N   N6        1.0  0.811724228853563  0.2795915851472913  0.10934121232788863  1.0000
  N   N7        1.0  0.3117242288800755  0.22040841555872046  0.6093412120150116  1.0000
  N   N8        1.0  0.1882757708910841  0.7204084148772275  0.8906587878038748  1.0000
  N   N9        1.0  0.3724289689940719  0.3638104745552125  0.14445663854010926  1.0000
  N   N10       1.0  0.1275710312141528  0.8638104752612243  0.3555433615488734  1.0000
  N   N11       1.0  0.6275710314223776  0.6361895254693064  0.855543361637856  1.0000
  N   N12       1.0  0.8724289685304942  0.13618952476329454  0.6444566385828899  1.0000
  N   N13       1.0  0.24932133131206477  0.2498937716003061  0.19455827435058776  1.0000
  N   N14       1.0  0.2506786688961599  0.7498937723063179  0.3054417257383949  1.0000
  N   N15       1.0  0.7506786691043846  0.7501062284242127  0.8054417258273775  1.0000
  N   N16       1.0  0.7493213308432229  0.2501062277182009  0.6945582739155185  1.0000
  O   O1        1.0  0.48052583626380846  0.09985302814343291  0.18954004588500858  1.0000
  O   O2        1.0  0.019474163267349676  0.59985302746194  0.31045995367992213  1.0000
  O   O3        1.0  0.5194741634755744  0.900146971881086  0.8104599537689048  1.0000
  O   O4        1.0  0.9805258364720331  0.4001469725625789  0.6895400459739912  1.0000
  O   O5        1.0  0.6561090263095455  0.1727326943811694  0.2999130590541911  1.0000
  O   O6        1.0  0.8438909734033249  0.6727326936996765  0.20008694091259926  1.0000
  O   O7        1.0  0.34389097343510167  0.8272673056433495  0.7000869410775724  1.0000
  O   O8        1.0  0.15610902633605797  0.3272673063248424  0.799913058741314  1.0000
  O   O9        1.0  0.37013967725793107  0.9648685013472739  0.23918198405186533  1.0000
  O   O10       1.0  0.12986032295029368  0.4648685020287669  0.2608180160371173  1.0000
  O   O11       1.0  0.6298603231585184  0.035131498677244966  0.7608180161260999  1.0000
  O   O12       1.0  0.8701396767943534  0.535131497995752  0.7391819840946461  1.0000
  O   O13       1.0  0.573146327265891  0.050498423419111885  0.37346149490408087  1.0000
  O   O14       1.0  0.9268536731187818  0.5504984241251237  0.12653850510891135  1.0000
  O   O15       1.0  0.42685367315055844  0.949501576605407  0.6265385052738843  1.0000
  O   O16       1.0  0.07314632662586533  0.4495015758993952  0.8734614950228521  1.0000
  S   S1        1.0  0.799376630318051  0.5227649968189273  0.3600736450030715  1.0000
  S   S2        1.0  0.7006233700666218  0.022764996112915496  0.13992635500992073  1.0000
  S   S3        1.0  0.20062337009839853  0.4772350032055916  0.6399263551748938  1.0000
  S   S4        1.0  0.29937663034982764  0.9772350039116035  0.8600736451680446  1.0000
  S   S5        1.0  0.23648107419568906  0.5922617946143289  0.14117094694433302  1.0000
  S   S6        1.0  0.2635189260125357  0.09226179390831707  0.35882905314464963  1.0000
  S   S7        1.0  0.7635189262207605  0.40773820541019  0.8588290532336321  1.0000
  S   S8        1.0  0.7364810744039137  0.9077382061162018  0.6411709470333157  1.0000
