data_image0
_chemical_formula_structural       H40C20N8Br16
_chemical_formula_sum              "H40 C20 N8 Br16"
_cell_length_a       6.915237101235099
_cell_length_b       11.134507237694358
_cell_length_c       14.164498256168683
_cell_angle_alpha    92.5196462440419
_cell_angle_beta     90.78561383568419
_cell_angle_gamma    93.2736238606085

_space_group_name_H-M_alt    "P 1"
_space_group_IT_number       1

loop_
  _space_group_symop_operation_xyz
  'x, y, z'

loop_
  _atom_site_type_symbol
  _atom_site_label
  _atom_site_symmetry_multiplicity
  _atom_site_fract_x
  _atom_site_fract_y
  _atom_site_fract_z
  _atom_site_occupancy
  H   H1        1.0  0.3943385837920467  0.13695761933704595  0.2665086012097151  1.0000
  H   H2        1.0  0.6056614158550773  0.8630423807041333  0.7334913987990321  1.0000
  H   H3        1.0  0.13480364740773285  0.13323798379424162  0.2673263297272501  1.0000
  H   H4        1.0  0.8651963522393912  0.8667620162469376  0.7326736702814971  1.0000
  H   H5        1.0  0.1440111123192589  0.34581653385601663  0.24434785904767184  1.0000
  H   H6        1.0  0.8559888873278653  0.6541834661851625  0.7556521409610755  1.0000
  H   H7        1.0  0.40390344888099544  0.3500406901610098  0.2463433350739409  1.0000
  H   H8        1.0  0.5960965507661286  0.6499593098801694  0.7536566649348063  1.0000
  H   H9        1.0  0.2476545601563749  0.9645513114753691  0.03776705560030374  1.0000
  H   H10       1.0  0.7523454394907492  0.035448688565810224  0.9622329444084435  1.0000
  H   H11       1.0  0.12047569274934318  0.944290336796309  0.14538539799301667  1.0000
  H   H12       1.0  0.8795243068977809  0.055709663244870256  0.8546146020157306  1.0000
  H   H13       1.0  0.380933186186422  0.9490977758615375  0.14512119750297234  1.0000
  H   H14       1.0  0.6190668134607022  0.05090222417964173  0.854878802505775  1.0000
  H   H15       1.0  0.27144569233463994  0.4120947680706727  0.9926406584345072  1.0000
  H   H16       1.0  0.7285543073124842  0.5879052319705066  0.007359341574240073  1.0000
  H   H17       1.0  0.4117627564023811  0.47737931227413294  0.09115360255146683  1.0000
  H   H18       1.0  0.5882372432447431  0.5226206877670463  0.9088463974572805  1.0000
  H   H19       1.0  0.1508740192948767  0.47425152205897186  0.0924294302095417  1.0000
  H   H20       1.0  0.8491259803522473  0.5257484779822073  0.9075705697992055  1.0000
  H   H21       1.0  0.36729082852912825  0.9172685152440718  0.5210884261461906  1.0000
  H   H22       1.0  0.6327091725641039  0.08273148479724124  0.47891157386306016  1.0000
  H   H23       1.0  0.10819255986320193  0.9151148709183323  0.5132810218593755  1.0000
  H   H24       1.0  0.8918074412300302  0.08488512912298081  0.4867189781498752  1.0000
  H   H25       1.0  0.11471103415245425  0.9018070502269638  0.34400803808402497  1.0000
  H   H26       1.0  0.8852889654946698  0.09819294981421539  0.6559919619247223  1.0000
  H   H27       1.0  0.3741696781623672  0.9270599976312526  0.35231841260782054  1.0000
  H   H28       1.0  0.625830322930865  0.07294000241006054  0.6476815874014301  1.0000
  H   H29       1.0  0.19124885249374649  0.6080450714642486  0.6011135955410495  1.0000
  H   H30       1.0  0.8087511471533775  0.3919549285769306  0.3988864044676978  1.0000
  H   H31       1.0  0.11037583641272981  0.7514837013273038  0.6393801608988358  1.0000
  H   H32       1.0  0.8896241632343944  0.24851629871387548  0.3606198391099117  1.0000
  H   H33       1.0  0.36427139193777186  0.7282832760799489  0.6359051737689215  1.0000
  H   H34       1.0  0.6357286091554604  0.2717167239613641  0.36409482624032913  1.0000
  H   H35       1.0  0.3123617155314301  0.6081340663984229  0.24926728256834726  1.0000
  H   H36       1.0  0.6876382841156942  0.39186593364275635  0.7507327174404  1.0000
  H   H37       1.0  0.40716789172183565  0.7536290040908888  0.22070150261981436  1.0000
  H   H38       1.0  0.5928321079252885  0.2463709959502904  0.7792984973889329  1.0000
  H   H39       1.0  0.14979536322885104  0.7179480348602177  0.21418636536052332  1.0000
  H   H40       1.0  0.8502046364182732  0.28205196518096154  0.7858136346482241  1.0000
  C   C1        1.0  0.2635625555574699  0.20132175045619358  0.0717307808947849  1.0000
  C   C2        1.0  0.7364374440896542  0.7986782495849857  0.9282692191139623  1.0000
  C   C3        1.0  0.2645814037752847  0.16580131544275548  0.2301459980121079  1.0000
  C   C4        1.0  0.7354185958718392  0.834198684598424  0.7698540019966393  1.0000
  C   C5        1.0  0.2717098960439891  0.30255937260447174  0.2164449516772714  1.0000
  C   C6        1.0  0.7282901036031348  0.6974406274367075  0.7835550483314759  1.0000
  C   C7        1.0  0.251295143970173  0.9854429359811032  0.11397176367209479  1.0000
  C   C8        1.0  0.7487048556769511  0.014557064060076045  0.8860282363366525  1.0000
  C   C9        1.0  0.2772136231024378  0.42550082623542423  0.06962290958537148  1.0000
  C   C10       1.0  0.7227863765446862  0.5744991738057551  0.9303770904233758  1.0000
  C   C11       1.0  0.25210761343623234  0.6798667404444275  0.42626703089983764  1.0000
  C   C12       1.0  0.7478923862108917  0.3201332595967517  0.5737329691089097  1.0000
  C   C13       1.0  0.23745122889914974  0.8739971308549942  0.4856558148642078  1.0000
  C   C14       1.0  0.7625487706653935  0.12600286828654292  0.514344185143374  1.0000
  C   C15       1.0  0.24850766971814714  0.8731040190246312  0.37712239076425147  1.0000
  C   C16       1.0  0.751492331375085  0.12689598101668206  0.6228776092449994  1.0000
  C   C17       1.0  0.22313459607582625  0.705380071073908  0.6009392304086613  1.0000
  C   C18       1.0  0.7768654035712979  0.29461992896727135  0.39906076960008613  1.0000
  C   C19       1.0  0.285111419482663  0.7039814333256557  0.2528835467586092  1.0000
  C   C20       1.0  0.7148885815279884  0.29601856581601527  0.747116453249476  1.0000
  N   N1        1.0  0.2577733734467101  0.11406005521773915  0.13263341986861324  1.0000
  N   N2        1.0  0.742226627646522  0.885939944823574  0.8673665801406375  1.0000
  N   N3        1.0  0.27230928612319566  0.31056118900231  0.11294468799081837  1.0000
  N   N4        1.0  0.7276907149700365  0.6894388110390031  0.8870553120184324  1.0000
  N   N5        1.0  0.27091343672511126  0.7451263205633818  0.3505019654944232  1.0000
  N   N6        1.0  0.7290865643681208  0.2548736794779311  0.6494980345148275  1.0000
  N   N7        1.0  0.226587927072566  0.7449276925579953  0.5052546491868761  1.0000
  N   N8        1.0  0.7734120725745581  0.25507230748318394  0.4947453508218712  1.0000
  Br  Br1       1.0  0.26792681028165183  0.21736025022687094  0.47532567935338754  1.0000
  Br  Br2       1.0  0.7320731893654722  0.7826397498143083  0.5246743206553597  1.0000
  Br  Br3       1.0  0.2365680987162447  0.34023587211534245  0.6408232952827875  1.0000
  Br  Br4       1.0  0.7634319009308793  0.6597641279258368  0.3591767047259597  1.0000
  Br  Br5       1.0  0.21572447401927788  0.47251864763554197  0.7883161557040755  1.0000
  Br  Br6       1.0  0.7842755256278462  0.5274813524056373  0.2116838443046716  1.0000
  Br  Br7       1.0  0.24941380859947618  0.022631119666248485  0.7312565111456828  1.0000
  Br  Br8       1.0  0.7505861910476479  0.9773688803749307  0.2687434888630643  1.0000
  Br  Br9       1.0  0.23913663690994322  0.8506158719867168  0.850525233775096  1.0000
  Br  Br10      1.0  0.7608633627371808  0.14938412805446244  0.14947476623365122  1.0000
  Br  Br11      1.0  0.2258155254340391  0.6911662517402708  0.9734462367063578  1.0000
  Br  Br12      1.0  0.7741844742130849  0.30883374830090843  0.026553763302389413  1.0000
  Br  Br13      1.0  0.25955651363947935  0.17084540708512522  0.9414261178649003  1.0000
  Br  Br14      1.0  0.7404434860076449  0.8291545929560541  0.05857388214384697  1.0000
  Br  Br15      1.0  0.2601239534409467  0.5127975014049102  0.42410316313008223  1.0000
  Br  Br16      1.0  0.7398760462061772  0.487202498636269  0.575896836878665  1.0000
