data_image0
_chemical_formula_structural       H16C28N4Br4
_chemical_formula_sum              "H16 C28 N4 Br4"
_cell_length_a       5.935194837119303
_cell_length_b       10.204521358117011
_cell_length_c       11.020952415354996
_cell_angle_alpha    67.28993719257971
_cell_angle_beta     85.19223380562022
_cell_angle_gamma    80.64681354189698

_space_group_name_H-M_alt    "P 1"
_space_group_IT_number       1

loop_
  _space_group_symop_operation_xyz
  'x, y, z'

loop_
  _atom_site_type_symbol
  _atom_site_label
  _atom_site_symmetry_multiplicity
  _atom_site_fract_x
  _atom_site_fract_y
  _atom_site_fract_z
  _atom_site_occupancy
  H   H1        1.0  0.6339977879116131  0.884071470156212  0.5662626779302001  1.0000
  H   H2        1.0  0.36600221225848495  0.11592853035579917  0.43373732233866574  1.0000
  H   H3        1.0  0.44379095664451995  0.6455855103478882  0.04703445920797931  1.0000
  H   H4        1.0  0.5562090418712314  0.3544144905571731  0.9529655400839354  1.0000
  H   H5        1.0  0.7258266196354757  0.9526000971371008  0.9845927362710768  1.0000
  H   H6        1.0  0.27417338083015  0.04739990238185327  0.015407263997674446  1.0000
  H   H7        1.0  0.45064865006253907  0.14560307417572108  0.83470301181082  1.0000
  H   H8        1.0  0.5493513504307752  0.854396925749764  0.16529698747406937  1.0000
  H   H9        1.0  0.8113532033885503  0.5694412416211838  0.9538416044141901  1.0000
  H   H10       1.0  0.1886467971047639  0.4305587583043012  0.04615839487069938  1.0000
  H   H11       1.0  0.5417323921245976  0.2567959469292712  0.5952905325429562  1.0000
  H   H12       1.0  0.4582676083410283  0.7432040525896828  0.40470946772579514  1.0000
  H   H13       1.0  0.9106476501665641  0.1789557479054943  0.5034777599146711  1.0000
  H   H14       1.0  0.08935235000353382  0.8210442526065169  0.4965222403541947  1.0000
  H   H15       1.0  0.9071556453752335  0.6877248728519064  0.7149391586539139  1.0000
  H   H16       1.0  0.09284435509039214  0.3122751266670475  0.2850608416148374  1.0000
  C   C1        1.0  0.5917501624310356  0.829460239332381  0.6704600585896124  1.0000
  C   C2        1.0  0.40824983773906254  0.17053976117963024  0.3295399416792534  1.0000
  C   C3        1.0  0.9773295236571246  0.9545416883359441  0.8304400799361382  1.0000
  C   C4        1.0  0.022670476540662045  0.04545831258259842  0.1695599193488657  1.0000
  C   C5        1.0  0.03222798841887249  0.02173232452226981  0.6913313228432384  1.0000
  C   C6        1.0  0.9677720120744417  0.9782676754032155  0.30866867644165097  1.0000
  C   C7        1.0  0.48476512931740745  0.6959774363321528  0.9424832104617292  1.0000
  C   C8        1.0  0.5152348708526905  0.3040225641798585  0.0575167898071365  1.0000
  C   C9        1.0  0.7642610128940401  0.002257091280733799  0.8798974469523503  1.0000
  C   C10       1.0  0.23573898727605788  0.9977429092312774  0.1201025533165156  1.0000
  C   C11       1.0  0.32326932143749204  0.8071264999829486  0.8602048197672746  1.0000
  C   C12       1.0  0.6767306790281336  0.19287349953600538  0.13979518050147666  1.0000
  C   C13       1.0  0.6133778293128668  0.10882029160986319  0.7964271982705711  1.0000
  C   C14       1.0  0.38662217118044745  0.8911797083156217  0.20357280101431832  1.0000
  C   C15       1.0  0.6886889331715271  0.6545019810457607  0.8900373929220577  1.0000
  C   C16       1.0  0.3113110673217872  0.3454980188797242  0.10996260636283157  1.0000
  C   C17       1.0  0.37786584439318116  0.8751560648658698  0.7211953214046585  1.0000
  C   C18       1.0  0.6221341540948816  0.12484393563266029  0.2788046788711182  1.0000
  C   C19       1.0  0.6656814966901095  0.1735040313391864  0.6596944365723351  1.0000
  C   C20       1.0  0.3343185037755162  0.8264959681797676  0.3403055636964162  1.0000
  C   C21       1.0  0.870129565263037  0.13172602912262044  0.6082518832967376  1.0000
  C   C22       1.0  0.12987043523027722  0.8682739708028648  0.39174811598815173  1.0000
  C   C23       1.0  0.7425818463386109  0.7217098144918723  0.7535841962230847  1.0000
  C   C24       1.0  0.25741815214945185  0.27829018600665795  0.2464158040526919  1.0000
  C   C25       1.0  0.9554634659733517  0.516512528458076  0.44484325268973346  1.0000
  C   C26       1.0  0.044536534196746164  0.48348747205393516  0.5551567475791325  1.0000
  C   C27       1.0  0.8635522441355372  0.5490669366905457  0.3303197791365969  1.0000
  C   C28       1.0  0.13644775633008854  0.45093306282840806  0.6696802211321545  1.0000
  N   N1        1.0  0.12381917098839948  0.848284199969404  0.912075192579151  1.0000
  N   N2        1.0  0.8761808291816987  0.1517158005426073  0.08792480768971488  1.0000
  N   N3        1.0  0.23129846749121413  0.9809079062024308  0.6394006711635335  1.0000
  N   N4        1.0  0.7687015326788839  0.019092094309580514  0.3605993291053323  1.0000
  Br  Br1       1.0  0.9787522593907118  0.6756223260832528  0.16823568434734285  1.0000
  Br  Br2       1.0  0.021247739392878766  0.32437767342222  0.8317643159283193  1.0000
  Br  Br3       1.0  0.6100151121405598  0.4623244660171302  0.3179888513723648  1.0000
  Br  Br4       1.0  0.3899848880295382  0.5376755344948811  0.682011148896501  1.0000
