data_image0
_chemical_formula_structural       H26C34N4O6Cl12
_chemical_formula_sum              "H26 C34 N4 O6 Cl12"
_cell_length_a       9.721308429100288
_cell_length_b       10.310430317951417
_cell_length_c       11.879666053837731
_cell_angle_alpha    115.31009362454735
_cell_angle_beta     94.566632642956
_cell_angle_gamma    111.71977340382519

_space_group_name_H-M_alt    "P 1"
_space_group_IT_number       1

loop_
  _space_group_symop_operation_xyz
  'x, y, z'

loop_
  _atom_site_type_symbol
  _atom_site_label
  _atom_site_symmetry_multiplicity
  _atom_site_fract_x
  _atom_site_fract_y
  _atom_site_fract_z
  _atom_site_occupancy
  H   H1        1.0  0.26786245402819114  0.35511288299998056  0.08066654868565075  1.0000
  H   H2        1.0  0.7321375464290294  0.6448871175407409  0.9193334514143244  1.0000
  H   H3        1.0  0.30754827220302733  0.14737343265685354  0.10237264937363509  1.0000
  H   H4        1.0  0.6924517279270324  0.8526265672903967  0.8976273497554372  1.0000
  H   H5        1.0  0.9615570987919846  0.7991093605743234  0.7270242510411589  1.0000
  H   H6        1.0  0.038442901665235917  0.20089063996639814  0.27297574905881633  1.0000
  H   H7        1.0  0.935777089121283  0.023293933112738363  0.721793355328046  1.0000
  H   H8        1.0  0.06422291133593751  0.976706067427983  0.27820664477192913  1.0000
  H   H9        1.0  0.9686567074507496  0.2948579913303479  0.8459126351068926  1.0000
  H   H10       1.0  0.031343292598611426  0.7051420081670102  0.1540873649941417  1.0000
  H   H11       1.0  0.16053155459772575  0.3619339516516286  0.8301075385966056  1.0000
  H   H12       1.0  0.8394684444222754  0.6380660478440195  0.16989246150420625  1.0000
  H   H13       1.0  0.13122846820126785  0.4346622687561487  0.9880503421169168  1.0000
  H   H14       1.0  0.868771531226593  0.5653377317828626  0.011949657982835838  1.0000
  H   H15       1.0  0.2688652241225642  0.9414512388688538  0.12727991873689898  1.0000
  H   H16       1.0  0.7311347759267967  0.05854876062850408  0.8727200813641353  1.0000
  H   H17       1.0  0.27099368957307035  0.7571872954060204  0.026743804663347484  1.0000
  H   H18       1.0  0.7290063108841502  0.24281270513470118  0.9732561954366277  1.0000
  H   H19       1.0  0.39452244667676695  0.9345055470421626  0.026172691921048603  1.0000
  H   H20       1.0  0.6054775537804535  0.06549445349855866  0.9738273081789264  1.0000
  H   H21       1.0  0.07595062901393573  0.584314117564096  0.8592360161529503  1.0000
  H   H22       1.0  0.9240493710354253  0.4156858819332622  0.1407639839480841  1.0000
  H   H23       1.0  0.9503318180704962  0.6321163923862831  0.7856924605129293  1.0000
  H   H24       1.0  0.04966818197886472  0.36788360711107504  0.2143075395881051  1.0000
  H   H25       1.0  0.12265522414243815  0.6401195569910745  0.7394581330143737  1.0000
  H   H26       1.0  0.8773447763147824  0.35988044354964704  0.26054186708560145  1.0000
  C   C1        1.0  0.5768768493350943  0.8339948006004029  0.5330502616725424  1.0000
  C   C2        1.0  0.4231231511221263  0.16600519994031848  0.4669497384274326  1.0000
  C   C3        1.0  0.6125089022553825  0.7974116391730405  0.4077069829691385  1.0000
  C   C4        1.0  0.38749109820183814  0.20258836136768102  0.5922930171308367  1.0000
  C   C5        1.0  0.5029850251429678  0.740971457997374  0.2965904031427959  1.0000
  C   C6        1.0  0.49701497490639307  0.2590285414999842  0.7034095969582386  1.0000
  C   C7        1.0  0.34398995260785736  0.718214456327491  0.29570079093704926  1.0000
  C   C8        1.0  0.6560100474415037  0.2817855431698672  0.7042992091639851  1.0000
  C   C9        1.0  0.312655927453475  0.7687720365072438  0.42305122568889464  1.0000
  C   C10       1.0  0.6873440715665262  0.2312279629884042  0.5769487744119173  1.0000
  C   C11       1.0  0.4214281939441661  0.8230357563857319  0.5339529012039815  1.0000
  C   C12       1.0  0.5785718057780339  0.17696424251815504  0.46604709792615007  1.0000
  C   C13       1.0  0.3909787804743964  0.46036710749331905  0.3845475745808272  1.0000
  C   C14       1.0  0.6090212199828242  0.5396328930474024  0.6154524255191479  1.0000
  C   C15       1.0  0.35252975038786616  0.4907785087307622  0.5068571158875285  1.0000
  C   C16       1.0  0.6474702500693544  0.5092214918099591  0.49314288421244656  1.0000
  C   C17       1.0  0.4561436062071817  0.5319778025839375  0.6162616095416599  1.0000
  C   C18       1.0  0.5438563938421792  0.4680221969134207  0.3837383905593745  1.0000
  C   C19       1.0  0.2048657715618547  0.23071895282442  0.003990709573389883  1.0000
  C   C20       1.0  0.7951342288953659  0.7692810477163015  0.9960092905265854  1.0000
  C   C21       1.0  0.22581730431060426  0.1117985388286872  0.014659240652497263  1.0000
  C   C22       1.0  0.7741826961466164  0.8882014617120343  0.9853407594474779  1.0000
  C   C23       1.0  0.13979651665963044  0.948609885785507  0.9155017674482953  1.0000
  C   C24       1.0  0.8602034827682306  0.05139011475350435  0.0844982326514574  1.0000
  C   C25       1.0  0.03394898248169443  0.919546726117541  0.8072138591191553  1.0000
  C   C26       1.0  0.9660510175676665  0.08045327337981736  0.19278614098187913  1.0000
  C   C27       1.0  0.018382080648840123  0.044074794777758726  0.802518510389812  1.0000
  C   C28       1.0  0.9816179194005208  0.9559252047195995  0.19748148971122237  1.0000
  C   C29       1.0  0.08916704450779728  0.33070871389965434  0.8902434558320038  1.0000
  C   C30       1.0  0.9108329555415637  0.6692912855977038  0.10975654426903056  1.0000
  C   C31       1.0  0.2789443549037333  0.8681724104403494  0.031697221018892434  1.0000
  C   C32       1.0  0.7210556451456277  0.1318275890570089  0.968302779082142  1.0000
  C   C33       1.0  0.07181248484388739  0.6629726179013096  0.8212381350499742  1.0000
  C   C34       1.0  0.9281875156133332  0.33702738263941184  0.17876186505000083  1.0000
  N   N1        1.0  0.10235772386803416  0.19860635165211807  0.8998579945833065  1.0000
  N   N2        1.0  0.897642275151967  0.8013936478435301  0.1001420055175054  1.0000
  N   N3        1.0  0.1574249293013366  0.829702183092254  0.9253975884965576  1.0000
  N   N4        1.0  0.8425750707480243  0.1702978164051042  0.07460241160447682  1.0000
  O   O1        1.0  0.6731189753091574  0.8750739515988556  0.6324543364212977  1.0000
  O   O2        1.0  0.32688102514806305  0.12492604894186568  0.36754566367867747  1.0000
  O   O3        1.0  0.2450968675158599  0.668514321375713  0.1947503687955925  1.0000
  O   O4        1.0  0.7549031329413607  0.3314856791650085  0.8052496313043827  1.0000
  O   O5        1.0  0.3000284448368282  0.43518708511573645  0.2879933038651511  1.0000
  O   O6        1.0  0.6999715556203924  0.564812915424985  0.712006696234824  1.0000
  Cl  Cl1       1.0  0.7997651029023263  0.8336132141470343  0.41130559200002004  1.0000
  Cl  Cl2       1.0  0.2002348971470346  0.16638678535032395  0.5886944081010144  1.0000
  Cl  Cl3       1.0  0.5421831228482463  0.6972538806221313  0.15044598361936876  1.0000
  Cl  Cl4       1.0  0.45781687728181336  0.30274611932511897  0.8495540155097037  1.0000
  Cl  Cl5       1.0  0.13294494294464243  0.7570196962833119  0.4246821629859101  1.0000
  Cl  Cl6       1.0  0.8670550575125782  0.24298030425740957  0.575317837114065  1.0000
  Cl  Cl7       1.0  0.38582648103832  0.8862033198821865  0.6819988911971027  1.0000
  Cl  Cl8       1.0  0.6141735194189004  0.11379668065853493  0.3180011089028725  1.0000
  Cl  Cl9       1.0  0.16864699999571123  0.4678790725996565  0.5056060672738818  1.0000
  Cl  Cl10      1.0  0.8313529990242902  0.5321209268959918  0.4943939328269302  1.0000
  Cl  Cl11      1.0  0.41267369396578063  0.5798172772642758  0.7616108160920902  1.0000
  Cl  Cl12      1.0  0.58732630649144  0.42018272327644574  0.2383891840078849  1.0000
