data_image0
_chemical_formula_structural       H28C56O12
_chemical_formula_sum              "H28 C56 O12"
_cell_length_a       8.069297122891363
_cell_length_b       16.42660196175367
_cell_length_c       7.386979895806284
_cell_angle_alpha    90.0
_cell_angle_beta     90.0
_cell_angle_gamma    96.85002224964019

_space_group_name_H-M_alt    "P 1"
_space_group_IT_number       1

loop_
  _space_group_symop_operation_xyz
  'x, y, z'

loop_
  _atom_site_type_symbol
  _atom_site_label
  _atom_site_symmetry_multiplicity
  _atom_site_fract_x
  _atom_site_fract_y
  _atom_site_fract_z
  _atom_site_occupancy
  H   H1        1.0  0.9127189912034405  0.36221226871652246  0.15039309239635348  1.0000
  H   H2        1.0  0.5872810078369217  0.13778773138194514  0.6503930926802121  1.0000
  H   H3        1.0  0.08728100891986994  0.6377877314208327  0.8496069081713639  1.0000
  H   H4        1.0  0.412718990890898  0.8622122681464321  0.34960690788750515  1.0000
  H   H5        1.0  0.8855711014112967  0.06597019286919628  0.18800595501666975  1.0000
  H   H6        1.0  0.6144288988672938  0.43402980722511786  0.6880059553005283  1.0000
  H   H7        1.0  0.1144288987120137  0.9340298072681589  0.8119940441973144  1.0000
  H   H8        1.0  0.3855711012560165  0.5659701929122373  0.3119940452671889  1.0000
  H   H9        1.0  0.9561148891904154  0.19584271186265392  0.34663064961821144  1.0000
  H   H10       1.0  0.543885111088175  0.30415728823166027  0.8466306499020702  1.0000
  H   H11       1.0  0.04388511093289502  0.8041572882747013  0.6533693509495059  1.0000
  H   H12       1.0  0.45611488903513525  0.695842711905695  0.15336935066564722  1.0000
  H   H13       1.0  0.7462559764603717  0.2959728061254583  0.3732517752708806  1.0000
  H   H14       1.0  0.7537440238182188  0.2040271939688559  0.8732517755547392  1.0000
  H   H15       1.0  0.2537440236629387  0.7040271940118968  0.6267482252968367  1.0000
  H   H16       1.0  0.24625597630509158  0.7959728061684994  0.12674822501297806  1.0000
  H   H17       1.0  0.47016060158676465  0.2659475185804181  0.22588250726758943  1.0000
  H   H18       1.0  0.029839398396259365  0.23405248118169383  0.7258825075514481  1.0000
  H   H19       1.0  0.5298393983792834  0.7340524809438058  0.7741174919463947  1.0000
  H   H20       1.0  0.970160601727051  0.7659475189556614  0.27411749166253596  1.0000
  H   H21       1.0  0.2684753144487034  0.17411275175514918  0.05415327585054123  1.0000
  H   H22       1.0  0.23152468553432068  0.3258872480069628  0.5541532747806667  1.0000
  H   H23       1.0  0.7315246855173446  0.8258872477690746  0.9458467247171761  1.0000
  H   H24       1.0  0.7684753145889898  0.6741127521303925  0.4458467244333174  1.0000
  H   H25       1.0  0.8165241999724064  0.958523502823691  0.08750853381460885  1.0000
  H   H26       1.0  0.683475800133928  0.5414764970757762  0.5875085340984675  1.0000
  H   H27       1.0  0.18347580015090392  0.04147649731366417  0.9124914653993752  1.0000
  H   H28       1.0  0.3165241999893824  0.4585235030615791  0.4124914664692498  1.0000
  C   C1        1.0  0.9500898357242279  0.42130236082371064  0.08684825721053024  1.0000
  C   C2        1.0  0.5499101645543626  0.07869763927060355  0.5868482574943888  1.0000
  C   C3        1.0  0.04991016424182014  0.5786976387005133  0.9131517420034538  1.0000
  C   C4        1.0  0.45008983556894777  0.9213023608667517  0.41315174307332836  1.0000
  C   C5        1.0  0.8462090103018501  0.4829678628955129  0.07804586422758539  1.0000
  C   C6        1.0  0.6537909899767403  0.017032137198801228  0.5780458631577109  1.0000
  C   C7        1.0  0.1537909898214603  0.5170321372418424  0.9219541363401319  1.0000
  C   C8        1.0  0.34620901014657  0.982967862938554  0.4219541360562733  1.0000
  C   C9        1.0  0.8948339602851743  0.5588366332838788  0.9946051503634241  1.0000
  C   C10       1.0  0.6051660398211602  0.9411633666155884  0.49460515007956546  1.0000
  C   C11       1.0  0.1051660398381362  0.4411633668534765  0.005394848850559951  1.0000
  C   C12       1.0  0.3948339603021502  0.05883663352176682  0.5053948491344186  1.0000
  C   C13       1.0  0.676045561687179  0.48462017509995564  0.15112159850790458  1.0000
  C   C14       1.0  0.8239544385914116  0.015379824994358532  0.6511215987917632  1.0000
  C   C15       1.0  0.3239544384361314  0.5153798250373995  0.8488784007060795  1.0000
  C   C16       1.0  0.17604556153189882  0.9846201751429967  0.3488784004222209  1.0000
  C   C17       1.0  0.755702939081008  0.6090310107058727  0.011900212433217277  1.0000
  C   C18       1.0  0.7442970610253263  0.8909689891935944  0.5119002127170759  1.0000
  C   C19       1.0  0.24429706104230237  0.3909689894314824  0.9880997881345001  1.0000
  C   C20       1.0  0.25570293909798403  0.1090310109437609  0.48809978785064134  1.0000
  C   C21       1.0  0.5817500698815025  0.008695496490376101  0.03608095510741992  1.0000
  C   C22       1.0  0.9182499303970881  0.49130450360393807  0.5360809540375453  1.0000
  C   C23       1.0  0.418249930241808  0.9913045036469792  0.9639190454602974  1.0000
  C   C24       1.0  0.08175006972622229  0.5086954965334172  0.4639190451764387  1.0000
  C   C25       1.0  0.632646776795401  0.08761587465095297  0.11845381094062021  1.0000
  C   C26       1.0  0.8673532234831893  0.4123841254433612  0.6184538112244788  1.0000
  C   C27       1.0  0.3673532233279092  0.9123841254864022  0.8815461882733638  1.0000
  C   C28       1.0  0.13264677664012106  0.587615874693994  0.3815461893432384  1.0000
  C   C29       1.0  0.7926464159751898  0.10858801869457771  0.19527381018309295  1.0000
  C   C30       1.0  0.7073535843034007  0.39141198139973643  0.6952738104669516  1.0000
  C   C31       1.0  0.20735358414812055  0.8914119814427776  0.8047261890308911  1.0000
  C   C32       1.0  0.2926464158199097  0.6085880187376187  0.30472619010076574  1.0000
  C   C33       1.0  0.8333474777320931  0.18229576153242727  0.28462195371529625  1.0000
  C   C34       1.0  0.666652522389235  0.3177042379487555  0.7846219526454217  1.0000
  C   C35       1.0  0.1666525222339549  0.8177042379917966  0.715378046852421  1.0000
  C   C36       1.0  0.33334747757681304  0.6822957615754685  0.2153780465685624  1.0000
  C   C37       1.0  0.7158550393032332  0.23892346115128285  0.29878603450011065  1.0000
  C   C38       1.0  0.7841449609753572  0.2610765389430313  0.7987860347839693  1.0000
  C   C39       1.0  0.2841449608200771  0.7610765389860724  0.7012139660676067  1.0000
  C   C40       1.0  0.2158550391479532  0.738923461194324  0.201213965783748  1.0000
  C   C41       1.0  0.5607284244640498  0.22191038638756486  0.21914865788643167  1.0000
  C   C42       1.0  0.9392715756572786  0.27808961309361796  0.7191486581702903  1.0000
  C   C43       1.0  0.4392715755019984  0.778089613136659  0.7808513413275523  1.0000
  C   C44       1.0  0.06072842430876957  0.7219103864306059  0.280851342397427  1.0000
  C   C45       1.0  0.5160769444205011  0.14666083841677838  0.1282295029038536  1.0000
  C   C46       1.0  0.9839230558580894  0.35333916167753576  0.628229501833979  1.0000
  C   C47       1.0  0.4839230557028093  0.8533391617205769  0.8717704976638637  1.0000
  C   C48       1.0  0.01607694426522094  0.6466608384598194  0.371770497380005  1.0000
  C   C49       1.0  0.35475883280961756  0.12788478432492667  0.049257331836867625  1.0000
  C   C50       1.0  0.14524116717340643  0.3721152154371853  0.5492573321207262  1.0000
  C   C51       1.0  0.6452411671564304  0.8721152151992972  0.9507426687308497  1.0000
  C   C52       1.0  0.8547588317116755  0.6278847847043234  0.450742668446991  1.0000
  C   C53       1.0  0.6919589710587087  0.9467766583209078  0.029367601247048118  1.0000
  C   C54       1.0  0.8080410290476258  0.5532233415785593  0.5293676015309068  1.0000
  C   C55       1.0  0.30804102906460173  0.05322334181644741  0.970632397966936  1.0000
  C   C56       1.0  0.19195897091842232  0.44677665794566457  0.47063239903681053  1.0000
  O   O1        1.0  0.6259516152855594  0.5613142059988744  0.10496383379088232  1.0000
  O   O2        1.0  0.874048384820775  0.9386857939005928  0.6049638327210077  1.0000
  O   O3        1.0  0.37404838483775094  0.4386857941384809  0.895036166776835  1.0000
  O   O4        1.0  0.1259516153025354  0.06131420623676241  0.39503616649297635  1.0000
  O   O5        1.0  0.7419909349360667  0.6779185036412689  0.9626945247322614  1.0000
  O   O6        1.0  0.7580090651702677  0.8220814962581983  0.46269452580213594  1.0000
  O   O7        1.0  0.25800906518724365  0.3220814964960863  0.03730547448172271  1.0000
  O   O8        1.0  0.2419909347957804  0.17791850326602562  0.5373054747655813  1.0000
  O   O9        1.0  0.5851495997068175  0.4345058424322845  0.23524062803887316  1.0000
  O   O10       1.0  0.914850400571773  0.06549415766202965  0.7352406283227317  1.0000
  O   O11       1.0  0.414850400416493  0.5654941577050707  0.7647593725288441  1.0000
  O   O12       1.0  0.0851495995515373  0.9345058424753256  0.26475937224498547  1.0000
