data_image0
_chemical_formula_structural       H14C28O6
_chemical_formula_sum              "H14 C28 O6"
_cell_length_a       6.524000232111662
_cell_length_b       7.241116574430969
_cell_length_c       10.621371398038788
_cell_angle_alpha    82.89611056818131
_cell_angle_beta     79.96477791997175
_cell_angle_gamma    103.9177517702508

_space_group_name_H-M_alt    "P 1"
_space_group_IT_number       1

loop_
  _space_group_symop_operation_xyz
  'x, y, z'

loop_
  _atom_site_type_symbol
  _atom_site_label
  _atom_site_symmetry_multiplicity
  _atom_site_fract_x
  _atom_site_fract_y
  _atom_site_fract_z
  _atom_site_occupancy
  H   H1        1.0  0.5308054071022303  0.8050999271641703  0.5991974160851484  1.0000
  H   H2        1.0  0.46919459348986936  0.1949000726866825  0.4008025837549349  1.0000
  H   H3        1.0  0.8880434261642045  0.1045453577103662  0.5006704882311781  1.0000
  H   H4        1.0  0.11195657288274113  0.8954546421489377  0.49932951272042514  1.0000
  H   H5        1.0  0.7801924936138853  0.893274075671515  0.718224333027681  1.0000
  H   H6        1.0  0.21980750698937704  0.10672592418687339  0.281775667752042  1.0000
  H   H7        1.0  0.7100894394950025  0.8598844318265487  0.9563807541883663  1.0000
  H   H8        1.0  0.28991056153140904  0.14011556946889964  0.04361924547852143  1.0000
  H   H9        1.0  0.7526330796610518  0.1524631665549146  0.06271766548060939  1.0000
  H   H10       1.0  0.2473669209422105  0.8475368333034738  0.9372823352991136  1.0000
  H   H11       1.0  0.86930205912398  0.4784393495645742  0.9296200199949456  1.0000
  H   H12       1.0  0.13069793991180334  0.5215606502871942  0.07037998001701781  1.0000
  H   H13       1.0  0.0008978607369910932  0.312218673848628  0.28585398504027915  1.0000
  H   H14       1.0  0.9991021382987921  0.6877813260031402  0.7141460149716843  1.0000
  C   C1        1.0  0.5221049104085681  0.6749078758346981  0.5566276392267148  1.0000
  C   C2        1.0  0.4778950901835315  0.32509212401615456  0.4433723606133686  1.0000
  C   C3        1.0  0.4571256994650958  0.49092009480281806  0.631724827006446  1.0000
  C   C4        1.0  0.5428742995706874  0.5090799050489502  0.3682751730055173  1.0000
  C   C5        1.0  0.434561434216345  0.32140360431043763  0.5767054708921175  1.0000
  C   C6        1.0  0.5654385663757547  0.6785963955404153  0.42329452894796576  1.0000
  C   C7        1.0  0.4009469768471922  0.43292153796689864  0.7737848578423728  1.0000
  C   C8        1.0  0.5990530237449074  0.5670784618839542  0.22621514199771026  1.0000
  C   C9        1.0  0.36004241510481083  0.15556422732822264  0.6839966990773924  1.0000
  C   C10       1.0  0.6399575859216007  0.8444357739672257  0.3160033005894955  1.0000
  C   C11       1.0  0.9849184468827029  0.4151791320367161  0.46902946779735594  1.0000
  C   C12       1.0  0.01508155215308016  0.5848208678150523  0.5309705322146074  1.0000
  C   C13       1.0  0.9135432278648077  0.2312719315228597  0.5477207678029464  1.0000
  C   C14       1.0  0.0864567711709755  0.7687280683289087  0.4522792322090169  1.0000
  C   C15       1.0  0.8719001184720836  0.20714939028586846  0.6833874671077115  1.0000
  C   C16       1.0  0.12809988255432803  0.7928506110095799  0.3166125325591763  1.0000
  C   C17       1.0  0.8024153777120068  0.02137967604520574  0.7637662631755742  1.0000
  C   C18       1.0  0.19758462132377655  0.9786203238065626  0.2362337368363892  1.0000
  C   C19       1.0  0.7634543875479689  0.002816814640155701  0.896505458779958  1.0000
  C   C20       1.0  0.23654561148781436  0.9971831852116126  0.1034945412320054  1.0000
  C   C21       1.0  0.7885828531285595  0.16934434843308568  0.9570807279805342  1.0000
  C   C22       1.0  0.21141714591838637  0.8306556514262182  0.04291927297106887  1.0000
  C   C23       1.0  0.8544993051197728  0.3510505840478425  0.8833591746227063  1.0000
  C   C24       1.0  0.14550069391601034  0.648949415803926  0.11664082538925706  1.0000
  C   C25       1.0  0.9003513918930429  0.37660964638670225  0.7450929200044898  1.0000
  C   C26       1.0  0.0996486075770522  0.6233903549096617  0.25490707983427824  1.0000
  C   C27       1.0  0.028006524887817  0.43968423093309245  0.3324676191524725  1.0000
  C   C28       1.0  0.9719934741479662  0.5603157689186758  0.667532380859491  1.0000
  O   O1        1.0  0.39878542179616167  0.5252658205416435  0.8608473289535671  1.0000
  O   O2        1.0  0.6012145787959381  0.47473417930920936  0.13915267088651617  1.0000
  O   O3        1.0  0.3426893484203823  0.22762972338125176  0.8002665126630002  1.0000
  O   O4        1.0  0.6573106521828799  0.7723702764771366  0.19973348811672273  1.0000
  O   O5        1.0  0.31523839565662637  0.9830672907871794  0.6831698536293647  1.0000
  O   O6        1.0  0.6847616038134687  0.016932710509184396  0.3168301462094033  1.0000
