data_image0
_chemical_formula_structural       H76C68N4O16
_chemical_formula_sum              "H76 C68 N4 O16"
_cell_length_a       12.380085750491338
_cell_length_b       7.513801403911912
_cell_length_c       16.383181089125102
_cell_angle_alpha    90.0
_cell_angle_beta     96.41608767252156
_cell_angle_gamma    90.0

_space_group_name_H-M_alt    "P 1"
_space_group_IT_number       1

loop_
  _space_group_symop_operation_xyz
  'x, y, z'

loop_
  _atom_site_type_symbol
  _atom_site_label
  _atom_site_symmetry_multiplicity
  _atom_site_fract_x
  _atom_site_fract_y
  _atom_site_fract_z
  _atom_site_occupancy
  H   H1        1.0  0.5457404104484985  0.41041906409643414  0.36389914829218917  1.0000
  H   H2        1.0  0.45425958980988157  0.910419063836119  0.6361008514944565  1.0000
  H   H3        1.0  0.9618435070260491  0.7957485630225868  0.6344900205090582  1.0000
  H   H4        1.0  0.03815649241950169  0.2957485619520177  0.3655099792121074  1.0000
  H   H5        1.0  0.03644964409346571  0.4465250835952669  0.6235889347816609  1.0000
  H   H6        1.0  0.9635503561649142  0.9465250833349517  0.37641106500498467  1.0000
  H   H7        1.0  0.45729620427458745  0.7554731253669621  0.3961359697219056  1.0000
  H   H8        1.0  0.5427037959837925  0.25547312562727725  0.6038640300647401  1.0000
  H   H9        1.0  0.1541733869318966  0.6856087568827622  0.6286044232380137  1.0000
  H   H10       1.0  0.8458266133264833  0.18560875581219313  0.371395576548632  1.0000
  H   H11       1.0  0.20871718323375826  0.924914792981062  0.5385251909413159  1.0000
  H   H12       1.0  0.7912828162117926  0.4249147919104929  0.4614748087798497  1.0000
  H   H13       1.0  0.11475761554858659  0.1481789496619297  0.732150370173892  1.0000
  H   H14       1.0  0.8852423847139987  0.6481789494016146  0.26784963022348274  1.0000
  H   H15       1.0  0.2836989165951009  0.2933611871685079  0.4734243608778955  1.0000
  H   H16       1.0  0.7163010828546555  0.7933611869081928  0.5265756394539992  1.0000
  H   H17       1.0  0.33631441111836674  0.5317902663649964  0.3825442773577571  1.0000
  H   H18       1.0  0.6636855891400132  0.03179026662531156  0.6174557224288886  1.0000
  H   H19       1.0  0.5494301494473921  0.9349144357665211  0.32749545272065955  1.0000
  H   H20       1.0  0.45056985081519335  0.43491443602683627  0.6725045476767152  1.0000
  H   H21       1.0  0.8916411251705458  0.3251344317841702  0.6946811897826722  1.0000
  H   H22       1.0  0.10835887427921047  0.8251344315238551  0.30531881054922244  1.0000
  H   H23       1.0  0.9189412116790422  0.143095410991329  0.7616279124240918  1.0000
  H   H24       1.0  0.08105878857933788  0.6430954107310138  0.23837208736255389  1.0000
  H   H25       1.0  0.34036631617700225  0.1011099321316194  0.24451597575440745  1.0000
  H   H26       1.0  0.6596336832685485  0.6011099318713042  0.7554840239667582  1.0000
  H   H27       1.0  0.46960738911557787  0.09159731845476769  0.2083173058506087  1.0000
  H   H28       1.0  0.5303926111428021  0.5915973195253368  0.791682693936037  1.0000
  H   H29       1.0  0.541173864409491  0.7198089368164788  0.2265043430451424  1.0000
  H   H30       1.0  0.4588261350402653  0.219808937076794  0.7734956572867523  1.0000
  H   H31       1.0  0.21483425158309752  0.9193983722278571  0.17127195676888732  1.0000
  H   H32       1.0  0.7851657478666587  0.419398371157288  0.8287280435630073  1.0000
  H   H33       1.0  0.06747493277292575  0.18401484889927353  0.8868289372905974  1.0000
  H   H34       1.0  0.9325250674896597  0.6840148486389585  0.11317106310677728  1.0000
  H   H35       1.0  0.924933228523668  0.6211679799748294  0.7430092409875596  1.0000
  H   H36       1.0  0.0750667709260883  0.12116798023514454  0.2569907593443351  1.0000
  H   H37       1.0  0.48455167566139945  0.4312573430957277  0.16615316909169495  1.0000
  H   H38       1.0  0.515448324601186  0.9312573428354126  0.8338468313056796  1.0000
  H   H39       1.0  0.29095921007470427  0.3797251147088541  0.11107803408210837  1.0000
  H   H40       1.0  0.7090407901836757  0.879725114448539  0.8889219657045372  1.0000
  H   H41       1.0  0.13144925612478386  0.3931856820785671  0.9984419247661435  1.0000
  H   H42       1.0  0.8685507441335961  0.893185681818252  0.0015580750205021832  1.0000
  H   H43       1.0  0.09819816887051287  0.719038215088728  0.981221460085087  1.0000
  H   H44       1.0  0.9018018305750379  0.2190382153490431  0.018778539636078603  1.0000
  H   H45       1.0  0.15703593607346727  0.6270840439763157  0.11187231166910921  1.0000
  H   H46       1.0  0.8429640641849128  0.12708404290574654  0.8881276881175364  1.0000
  H   H47       1.0  0.9930286753345717  0.8316453608617705  0.8529303492973741  1.0000
  H   H48       1.0  0.006971324923808368  0.3316453611220856  0.14706965048927154  1.0000
  H   H49       1.0  0.9511601547373238  0.6209756192878345  0.5308951169398071  1.0000
  H   H50       1.0  0.048839844708227005  0.12097561954814962  0.46910488278135865  1.0000
  H   H51       1.0  0.8591605982425087  0.5821290895075777  0.5917624206558708  1.0000
  H   H52       1.0  0.14083940201587145  0.08212908976789275  0.4082375791307749  1.0000
  H   H53       1.0  0.6411561925943303  0.6336596848994677  0.399431890275569  1.0000
  H   H54       1.0  0.35884380766404966  0.13365968515978277  0.6005681095110765  1.0000
  H   H55       1.0  0.5579466372252067  0.5898614698137368  0.46640170603275444  1.0000
  H   H56       1.0  0.4420533630373788  0.08986147007405197  0.5335982943646204  1.0000
  H   H57       1.0  0.5950282288960687  0.3176877590559199  0.9655504894743828  1.0000
  H   H58       1.0  0.4049717713623114  0.8176877587956047  0.03444951031226281  1.0000
  H   H59       1.0  0.6130174865682749  0.05306014473478543  0.05507467651788104  1.0000
  H   H60       1.0  0.38698251369010517  0.5530601444744703  0.9449253232687645  1.0000
  H   H61       1.0  0.7540940259239899  0.3759728236268298  0.2562056549847698  1.0000
  H   H62       1.0  0.24590597433439013  0.8759728233665147  0.7437943448018759  1.0000
  H   H63       1.0  0.7892333523433241  0.9849310970805051  0.2159968837720747  1.0000
  H   H64       1.0  0.2107666479150558  0.48493109600993606  0.784003116014571  1.0000
  H   H65       1.0  0.651792236440366  0.9214630195569605  0.18987863272511324  1.0000
  H   H66       1.0  0.3482077638222194  0.4214630198172757  0.8101213676722615  1.0000
  H   H67       1.0  0.6893068705274752  0.05844913731301869  0.2775473776799626  1.0000
  H   H68       1.0  0.3106931289180758  0.5584491370527036  0.7224526220412031  1.0000
  H   H69       1.0  0.7370880462130154  0.6408783319043992  0.16596491608315536  1.0000
  H   H70       1.0  0.26291195404957  0.14087833216471443  0.8340350843142194  1.0000
  H   H71       1.0  0.7209273612525938  0.6432895401631865  0.9582918145116398  1.0000
  H   H72       1.0  0.27907263819716244  0.14328954042350173  0.041708185820254866  1.0000
  H   H73       1.0  0.6795006098722827  0.7805240283495726  0.037406388820721864  1.0000
  H   H74       1.0  0.32049938957326823  0.2805240272790035  0.9625936109004438  1.0000
  H   H75       1.0  0.5809308313623911  0.6705359190591492  0.9676710309575414  1.0000
  H   H76       1.0  0.4190691689001943  0.17053591931946435  0.032328969439833294  1.0000
  C   C1        1.0  0.31559390777587754  0.8930852626083954  0.40481302146930226  1.0000
  C   C2        1.0  0.6844060924867078  0.3930852628687105  0.5951869789280725  1.0000
  C   C3        1.0  0.01058979593821825  0.04282249725584737  0.6324008504309253  1.0000
  C   C4        1.0  0.9894102035073327  0.5428224983264165  0.3675991492902404  1.0000
  C   C5        1.0  0.18301137896223046  0.3255152962555828  0.6097776210421669  1.0000
  C   C6        1.0  0.8169886212961496  0.8255152959952676  0.3902223787444786  1.0000
  C   C7        1.0  0.2769144194138343  0.7447937946678271  0.45486558681580413  1.0000
  C   C8        1.0  0.7230855808445457  0.24479379492814224  0.5451344129708416  1.0000
  C   C9        1.0  0.49193218849057807  0.17036960137561383  0.3764886368224864  1.0000
  C   C10       1.0  0.5080678109549729  0.6703696011152988  0.6235113628986793  1.0000
  C   C11       1.0  0.1933223107245972  0.6519045855337361  0.57433587978814  1.0000
  C   C12       1.0  0.8066776895337828  0.15190458446316701  0.42566411999850556  1.0000
  C   C13       1.0  0.38165628259252593  0.8417072597510116  0.20336045415135356  1.0000
  C   C14       1.0  0.6183437176700595  0.34170725868044255  0.7966395462460212  1.0000
  C   C15       1.0  0.22356547491120787  0.7866621344187573  0.5234055082189302  1.0000
  C   C16       1.0  0.776434525347172  0.2866621346790724  0.4765944915677155  1.0000
  C   C17       1.0  0.21530911532537186  0.4735681246708814  0.5571591502092627  1.0000
  C   C18       1.0  0.7846908841201791  0.9735681244105662  0.4428408495119031  1.0000
  C   C19       1.0  0.04780456886135135  0.1995468364680746  0.6887398244547159  1.0000
  C   C20       1.0  0.952195430588405  0.6995468362077595  0.3112601758771788  1.0000
  C   C21       1.0  0.2676423636802575  0.43148139612953873  0.4880904650801892  1.0000
  C   C22       1.0  0.7323576357694987  0.9314813958692235  0.5119095352517056  1.0000
  C   C23       1.0  0.29733086766023575  0.5661472324495138  0.43687847900464005  1.0000
  C   C24       1.0  0.7026691325981442  0.0661472313789446  0.5631215207820057  1.0000
  C   C25       1.0  0.4687384556831237  0.994068066014001  0.33136372695087485  1.0000
  C   C26       1.0  0.5312615437666326  0.4940680649434318  0.6686362733810199  1.0000
  C   C27       1.0  0.9930619515064084  0.38864075759038175  0.8060869676597736  1.0000
  C   C28       1.0  0.006938047943347867  0.8886407573300668  0.19391303267212115  1.0000
  C   C29       1.0  0.9552547625363491  0.26226818810702524  0.7372758941826291  1.0000
  C   C30       1.0  0.04474523772623633  0.76226818784671  0.2627241062147456  1.0000
  C   C31       1.0  0.41302605156504524  0.018138311444995673  0.24298022470764538  1.0000
  C   C32       1.0  0.5869739486933347  0.5181383111846806  0.7570197750790003  1.0000
  C   C33       1.0  0.4566917683191106  0.7022589560662097  0.20088533626183153  1.0000
  C   C34       1.0  0.5433082311264402  0.20225895632652477  0.7991146634593341  1.0000
  C   C35       1.0  0.27402435321912233  0.812210529922005  0.17028024413377033  1.0000
  C   C36       1.0  0.7259756470392577  0.31221052885143596  0.8297197556528753  1.0000
  C   C37       1.0  0.050642247705418725  0.3261019061169647  0.8790797543092277  1.0000
  C   C38       1.0  0.9493577517401323  0.8261019058566496  0.12092024541193801  1.0000
  C   C39       1.0  0.9716171001403845  0.5712786416959607  0.7984663556321068  1.0000
  C   C40       1.0  0.028382900122200863  0.07127864062539158  0.201533644765268  1.0000
  C   C41       1.0  0.42475469690740425  0.5373768686377349  0.1672452045777324  1.0000
  C   C42       1.0  0.5752453033509757  0.03737686889805006  0.8327547952089133  1.0000
  C   C43       1.0  0.3164753413869941  0.5090687049578616  0.13608628876634085  1.0000
  C   C44       1.0  0.6835246588713859  0.009068705218176784  0.8639137110203047  1.0000
  C   C45       1.0  0.08708529232106278  0.4440861117599906  0.9420655507618078  1.0000
  C   C46       1.0  0.9129147071286936  0.9440861114996755  0.057934449570087025  1.0000
  C   C47       1.0  0.06742729572674132  0.6264974727105772  0.9329075272292862  1.0000
  C   C48       1.0  0.9325727045316387  0.12649747297089234  0.06709247255735941  1.0000
  C   C49       1.0  0.24148351694971407  0.6472393371307441  0.1369781638348915  1.0000
  C   C50       1.0  0.7585164833128715  0.14723933739105916  0.8630218365624831  1.0000
  C   C51       1.0  0.008880092814911844  0.6896494931716124  0.8610346035341904  1.0000
  C   C52       1.0  0.991119906630639  0.18964949343192752  0.13896539618697523  1.0000
  C   C53       1.0  0.68708038476084  0.19404633841412253  0.1616478917628046  1.0000
  C   C54       1.0  0.31291961549754005  0.6940463381538073  0.838352108023841  1.0000
  C   C55       1.0  0.6306253936761652  0.3313906511694106  0.029198459327890256  1.0000
  C   C56       1.0  0.36937460658642035  0.8313906509090955  0.9708015410694845  1.0000
  C   C57       1.0  0.6406686596662832  0.18206027235265976  0.07990296963011069  1.0000
  C   C58       1.0  0.3593313397792677  0.6820602720923445  0.9200970300910549  1.0000
  C   C59       1.0  0.6670962481374177  0.49812808707605266  0.05882019602087438  1.0000
  C   C60       1.0  0.3329037521209623  0.9981280868157375  0.9411798037657713  1.0000
  C   C61       1.0  0.7204296819397926  0.3618346418611137  0.1920880903330162  1.0000
  C   C62       1.0  0.2795703175057582  0.8618346416007986  0.8079119093881495  1.0000
  C   C63       1.0  0.7046065957665958  0.030942807442176267  0.21407768012863698  1.0000
  C   C64       1.0  0.2953934044917844  0.5309428071818612  0.7859223196580086  1.0000
  C   C65       1.0  0.7108402575424809  0.5110595893578954  0.141280113468934  1.0000
  C   C66       1.0  0.2891597427201045  0.011059589618210545  0.8587198869284406  1.0000
  C   C67       1.0  0.6612934239964089  0.6568538499607462  0.0030381631913201715  1.0000
  C   C68       1.0  0.3387065754533474  0.15685385022106138  0.9969618371405744  1.0000
  N   N1        1.0  0.08872846142640381  0.3437572689444855  0.6424978643892103  1.0000
  N   N2        1.0  0.9112715388361817  0.8437572686841704  0.35750213600816433  1.0000
  N   N3        1.0  0.41381632596449014  0.868849852299947  0.3797066252024556  1.0000
  N   N4        1.0  0.5861836742938898  0.3688498525602622  0.62029337458419  1.0000
  O   O1        1.0  0.26118791491454685  0.03314703658128783  0.3888692446733985  1.0000
  O   O2        1.0  0.7388120853480387  0.533147037651857  0.6111307557239761  1.0000
  O   O3        1.0  0.00556976628434369  0.047254596031130684  0.5569459582780852  1.0000
  O   O4        1.0  0.9944302339740364  0.5472545957708155  0.4430540415085603  1.0000
  O   O5        1.0  0.24040908117543458  0.1879209595910892  0.6232184907994822  1.0000
  O   O6        1.0  0.7595909190829454  0.6879209606616583  0.37678150898716345  1.0000
  O   O7        1.0  0.5282994656510904  0.2939423936398057  0.3295401596986357  1.0000
  O   O8        1.0  0.4717005346072895  0.7939423933794906  0.67045984008801  1.0000
  O   O9        1.0  0.48140910752279226  0.19269097254103756  0.4498172807347834  1.0000
  O   O10       1.0  0.5185908919227585  0.6926909722807224  0.5501827189863823  1.0000
  O   O11       1.0  0.9847355401862222  0.9019645829967762  0.6742072020169777  1.0000
  O   O12       1.0  0.015264459259328705  0.4019645832570914  0.325792797704188  1.0000
  O   O13       1.0  0.9362742764270634  0.6244535778596959  0.5892191958997604  1.0000
  O   O14       1.0  0.06372572383131649  0.1244535767891268  0.4107808038868853  1.0000
  O   O15       1.0  0.5671540449478707  0.5840202760370221  0.40682844180509703  1.0000
  O   O16       1.0  0.43284595531050934  0.08402027629733733  0.5931715579815486  1.0000
