data_image0
_chemical_formula_structural       H76C68N4O16
_chemical_formula_sum              "H76 C68 N4 O16"
_cell_length_a       12.403141647779572
_cell_length_b       7.517139302268691
_cell_length_c       16.385198523048945
_cell_angle_alpha    90.0
_cell_angle_beta     97.15305714055354
_cell_angle_gamma    90.0

_space_group_name_H-M_alt    "P 1"
_space_group_IT_number       1

loop_
  _space_group_symop_operation_xyz
  'x, y, z'

loop_
  _atom_site_type_symbol
  _atom_site_label
  _atom_site_symmetry_multiplicity
  _atom_site_fract_x
  _atom_site_fract_y
  _atom_site_fract_z
  _atom_site_occupancy
  H   H1        1.0  0.8368427617737876  0.4382299698777421  0.38547504609460204  1.0000
  H   H2        1.0  0.1631572381312977  0.9382299697268408  0.6145249537536555  1.0000
  H   H3        1.0  0.7837039404671399  0.6771327928516364  0.4751922445433496  1.0000
  H   H4        1.0  0.21629605943794517  0.1771327930025376  0.5248077553049078  1.0000
  H   H5        1.0  0.653379460720017  0.28657701465633945  0.6292086654005424  1.0000
  H   H6        1.0  0.34662053919443786  0.7865770145054383  0.3707913350588645  1.0000
  H   H7        1.0  0.7078620659300308  0.046337038066445776  0.5400881456159328  1.0000
  H   H8        1.0  0.29213793397505433  0.5463370392458378  0.4599118542323248  1.0000
  H   H9        1.0  0.047789942174791517  0.03639679258270855  0.3306968041824716  1.0000
  H   H10       1.0  0.9522100577302937  0.5363967924318073  0.6693031956657857  1.0000
  H   H11       1.0  0.9662700219966465  0.8794736965968883  0.21118503467268676  1.0000
  H   H12       1.0  0.03372997791780838  0.3794736967477896  0.7888149657867202  1.0000
  H   H13       1.0  0.8374888829580386  0.8710672313899807  0.2467188883577097  1.0000
  H   H14       1.0  0.16251111694704673  0.3710672315408819  0.7532811114905478  1.0000
  H   H15       1.0  0.0404450691319816  0.24809495008788107  0.22796472750506272  1.0000
  H   H16       1.0  0.9595549307731035  0.7480949499369798  0.7720352723431946  1.0000
  H   H17       1.0  0.9844507007758808  0.5377029661775881  0.1676648958472927  1.0000
  H   H18       1.0  0.015549299941721861  0.037702966328489296  0.832335104070514  1.0000
  H   H19       1.0  0.7903750844591327  0.5933851243988245  0.11398053718146699  1.0000
  H   H20       1.0  0.20962491545532222  0.09338512454972572  0.8860194632779399  1.0000
  H   H21       1.0  0.6547003843719007  0.34917607010526297  0.11527458026690114  1.0000
  H   H22       1.0  0.34529961634570194  0.8491760699543618  0.8847254196509056  1.0000
  H   H23       1.0  0.7117135771730446  0.055657776605753426  0.17430620570021477  1.0000
  H   H24       1.0  0.28828642273204064  0.5556577764548523  0.8256937941480427  1.0000
  H   H25       1.0  0.6154494310089761  0.8245485311319631  0.7319276539208255  1.0000
  H   H26       1.0  0.3845505688961091  0.3245485312828644  0.26807234592743195  1.0000
  H   H27       1.0  0.41902640459150226  0.8284020582298657  0.7597800414656575  1.0000
  H   H28       1.0  0.5809735953135828  0.3284020583807669  0.24021995838259996  1.0000
  H   H29       1.0  0.39263788641587116  0.6457441740550166  0.6924760699242319  1.0000
  H   H30       1.0  0.6073621134985836  0.14574417420591787  0.30752393053517496  1.0000
  H   H31       1.0  0.5679488633375428  0.7904167331589542  0.8858918894041832  1.0000
  H   H32       1.0  0.4320511365675424  0.29041673330985557  0.1141081104440742  1.0000
  H   H33       1.0  0.6318254570064035  0.5830367968140845  0.9991167772093345  1.0000
  H   H34       1.0  0.3681745428986816  0.08303679696498575  0.000883222638922902  1.0000
  H   H35       1.0  0.5994711639401862  0.2567234492272311  0.9825945420890483  1.0000
  H   H36       1.0  0.4005288359648989  0.7567234490763298  0.017405457759209063  1.0000
  H   H37       1.0  0.495162711471234  0.14222164669442042  0.8534368022183124  1.0000
  H   H38       1.0  0.5048372884338511  0.6422216465435192  0.14656319762994507  1.0000
  H   H39       1.0  0.4267318628769131  0.3505225357743168  0.7421822411004251  1.0000
  H   H40       1.0  0.5732681370375418  0.8505225356234155  0.2578177593589818  1.0000
  H   H41       1.0  0.9562429282816636  0.21363283629921997  0.3994092742757926  1.0000
  H   H42       1.0  0.04375707162342158  0.7136328374786121  0.6005907255724648  1.0000
  H   H43       1.0  0.5361409918920663  0.5268904540327792  0.6226319100753863  1.0000
  H   H44       1.0  0.46385900801301877  0.026890454183680468  0.3773680897728712  1.0000
  H   H45       1.0  0.047224629256583  0.5605716098314469  0.36500423278557415  1.0000
  H   H46       1.0  0.9527753706485022  0.060571609982348174  0.6349957670626831  1.0000
  H   H47       1.0  0.46189467490713987  0.17751343248318904  0.6340968393381643  1.0000
  H   H48       1.0  0.5381053258104628  0.6775134323322878  0.36590316057964234  1.0000
  H   H49       1.0  0.18330695368687647  0.9104228556645919  0.27691605898568056  1.0000
  H   H50       1.0  0.8166930462182087  0.41042285581549315  0.7230839408625768  1.0000
  H   H51       1.0  0.15211609376709415  0.047352014601162555  0.188193977126471  1.0000
  H   H52       1.0  0.847883906137991  0.5473520144502613  0.8118060227217865  1.0000
  H   H53       1.0  0.28797561026030793  0.979657222499184  0.21984194858304912  1.0000
  H   H54       1.0  0.7120243896541469  0.47965722265008526  0.7801580518763578  1.0000
  H   H55       1.0  0.11422512720510083  0.9151829377332056  0.05379896365411587  1.0000
  H   H56       1.0  0.8857748726999843  0.4151829378841068  0.9462010361941415  1.0000
  H   H57       1.0  0.09578976873540528  0.6507449354468742  0.9642330306872102  1.0000
  H   H58       1.0  0.9042102311696799  0.15074493559777538  0.035766969161047275  1.0000
  H   H59       1.0  0.23256368307150985  0.3261574744610692  0.16721731716826263  1.0000
  H   H60       1.0  0.7674363168335753  0.826157474310168  0.8327826826799948  1.0000
  H   H61       1.0  0.24993891416310504  0.5907658261248045  0.25748936495175595  1.0000
  H   H62       1.0  0.7500610857513498  0.09076582627570576  0.742510635507651  1.0000
  H   H63       1.0  0.08595241810803335  0.31206949421464236  0.9580734632102017  1.0000
  H   H64       1.0  0.9140475817970517  0.8120694940637411  0.04192653663805567  1.0000
  H   H65       1.0  0.16034532889843708  0.18585937732700292  0.037930036433124724  1.0000
  H   H66       1.0  0.8396546710066481  0.6858593771761017  0.9620699634151327  1.0000
  H   H67       1.0  0.23004095626574267  0.3085338287265785  0.9686508579522988  1.0000
  H   H68       1.0  0.7699590436393424  0.8085338285756771  0.03134914189595868  1.0000
  H   H69       1.0  0.35977925664273214  0.39050082510963635  0.5901156721283053  1.0000
  H   H70       1.0  0.640220743262353  0.8905008249587351  0.40988432771995204  1.0000
  H   H71       1.0  0.4523342059158635  0.35211976971095227  0.5303809046341444  1.0000
  H   H72       1.0  0.5476657948017393  0.8521197695600511  0.4696190952836622  1.0000
  H   H73       1.0  0.14147956049835247  0.33619133401416224  0.39901564007068524  1.0000
  H   H74       1.0  0.8585204394161025  0.8361913338632609  0.6009843603887216  1.0000
  H   H75       1.0  0.05969859962627491  0.37785165018064404  0.46631620668421536  1.0000
  H   H76       1.0  0.9403014002788102  0.8778516500297427  0.5336837931640421  1.0000
  C   C1        1.0  0.8147078870840113  0.07701598130891023  0.40730512869981944  1.0000
  C   C2        1.0  0.1852921136335913  0.577015981158009  0.5926948712179871  1.0000
  C   C3        1.0  0.7763728763721736  0.2256599607630056  0.4569763128094615  1.0000
  C   C4        1.0  0.22362712353291156  0.7256599606121044  0.543023687038796  1.0000
  C   C5        1.0  0.797579799246048  0.4039854934021885  0.439286208642083  1.0000
  C   C6        1.0  0.20242020147155457  0.9039854932512873  0.5607137912757237  1.0000
  C   C7        1.0  0.767886928386335  0.5391073860739726  0.4898942634424059  1.0000
  C   C8        1.0  0.23211307151875035  0.039107386224873794  0.5101057364058514  1.0000
  C   C9        1.0  0.7151607056682883  0.49767935641034605  0.558285474383959  1.0000
  C   C10       1.0  0.28483929505868405  0.9976793562594448  0.4417145261449973  1.0000
  C   C11       1.0  0.692737355891085  0.31971707764876206  0.5753848629700564  1.0000
  C   C12       1.0  0.30726264402336995  0.8197170774978608  0.4246151374893506  1.0000
  C   C13       1.0  0.722825729294198  0.18443982135352513  0.5249929911930168  1.0000
  C   C14       1.0  0.27717427061088706  0.6844398212026239  0.47500700865524065  1.0000
  C   C15       1.0  0.6830187385236695  0.6463357062617775  0.6102844112634217  1.0000
  C   C16       1.0  0.3169812613814157  0.14633570641267873  0.38971558858483574  1.0000
  C   C17       1.0  0.9673362682320615  0.9765517592290069  0.334170296677302  1.0000
  C   C18       1.0  0.03266373167302365  0.47655175804961486  0.6658297031709554  1.0000
  C   C19       1.0  0.9914618428449127  0.7993252217883707  0.3782797200694886  1.0000
  C   C20       1.0  0.008538157069542206  0.29932522193927197  0.6217202803899183  1.0000
  C   C21       1.0  0.9103390102956472  0.9534398288770489  0.2456185882709496  1.0000
  C   C22       1.0  0.0896609896188076  0.4534398276976569  0.7543814121884574  1.0000
  C   C23       1.0  0.8794469364020494  0.13025605760751158  0.20595681350160847  1.0000
  C   C24       1.0  0.1205530635030357  0.6302560574566103  0.7940431863466488  1.0000
  C   C25       1.0  0.9555588504810172  0.2676219395578912  0.2028781941378342  1.0000
  C   C26       1.0  0.04444114943343775  0.7676219394069899  0.7971218063215727  1.0000
  C   C27       1.0  0.9240591673021968  0.432930497778299  0.16931961160938255  1.0000
  C   C28       1.0  0.0759408326122581  0.9329304976273979  0.8306803888500244  1.0000
  C   C29       1.0  0.8153804664558337  0.46354778325690377  0.13884590923868426  1.0000
  C   C30       1.0  0.18461953345862112  0.9635477831060025  0.8611540912207227  1.0000
  C   C31       1.0  0.7394419854516494  0.32718313724181247  0.13999260961956025  1.0000
  C   C32       1.0  0.2605580144534357  0.8271831370909113  0.8600073902286972  1.0000
  C   C33       1.0  0.7715316787749564  0.16169134974433325  0.17316248321177588  1.0000
  C   C34       1.0  0.2284683211301288  0.661691349593432  0.8268375166364815  1.0000
  C   C35       1.0  0.5103535419839524  0.9306270256144774  0.6320568619625936  1.0000
  C   C36       1.0  0.48964645792113276  0.4306270257653786  0.36794313788566374  1.0000
  C   C37       1.0  0.5480191781984504  0.7734799976694875  0.688129315023028  1.0000
  C   C38       1.0  0.4519808217066348  0.2734799978203887  0.31187068482522945  1.0000
  C   C39       1.0  0.45579515115908076  0.7097242548624655  0.7357260607791426  1.0000
  C   C40       1.0  0.5442048487553741  0.20972425501336664  0.2642739396802644  1.0000
  C   C41       1.0  0.4943876727720683  0.5842534365000405  0.8051079195151561  1.0000
  C   C42       1.0  0.5056123271330168  0.0842534366509418  0.19489208033310124  1.0000
  C   C43       1.0  0.5517307319750858  0.6480102847807896  0.8785225225836062  1.0000
  C   C44       1.0  0.4482692687425169  0.14801028360139745  0.12147747733420046  1.0000
  C   C45       1.0  0.5881842913568539  0.5310784887005017  0.9422974030834288  1.0000
  C   C46       1.0  0.41181570854823124  0.031078488851402887  0.05770259676482866  1.0000
  C   C47       1.0  0.56892308672177  0.3484936496001046  0.9335969770329462  1.0000
  C   C48       1.0  0.4310769131926848  0.8484936507794967  0.06640302342646079  1.0000
  C   C49       1.0  0.51084332683956  0.28422089761662267  0.8612261417796606  1.0000
  C   C50       1.0  0.48915667306552524  0.7842208974657214  0.13877385806859677  1.0000
  C   C51       1.0  0.47343578126135527  0.40147678773082907  0.7978953060027718  1.0000
  C   C52       1.0  0.5265642186437299  0.9014767875799278  0.2021046938454857  1.0000
  C   C53       1.0  0.20259544971704654  0.9366231151091069  0.21446505453216255  1.0000
  C   C54       1.0  0.7974045501880387  0.4366231152600082  0.7855349453160948  1.0000
  C   C55       1.0  0.1855906643892465  0.7737212516794341  0.1616971425586827  1.0000
  C   C56       1.0  0.8144093355158386  0.27372125183033535  0.8383028572895748  1.0000
  C   C57       1.0  0.14063571578563822  0.7859372738000147  0.07921977571363041  1.0000
  C   C58       1.0  0.8593642841194469  0.28593727395091595  0.9207802241346271  1.0000
  C   C59       1.0  0.13041661219239653  0.6365850634902808  0.02844106566410842  1.0000
  C   C60       1.0  0.8695833877220583  0.13658506364118206  0.9715589347952985  1.0000
  C   C61       1.0  0.1651927299105199  0.46951965609241864  0.05879760431693763  1.0000
  C   C62       1.0  0.834807270003935  0.9695196559415175  0.9412023961424694  1.0000
  C   C63       1.0  0.20775175472311294  0.4562879191243434  0.14196417096133881  1.0000
  C   C64       1.0  0.7922482451913418  0.9562879189734421  0.8580358294980682  1.0000
  C   C65       1.0  0.21754925642180992  0.6055336926676657  0.1927811327776694  1.0000
  C   C66       1.0  0.782450743492645  0.10553369148827355  0.8072188676817375  1.0000
  C   C67       1.0  0.15928921169562837  0.31059468983039284  0.0031448010223595817  1.0000
  C   C68       1.0  0.8407107890219742  0.8105946896794917  0.996855198895447  1.0000
  N   N1        1.0  0.9128079152953094  0.10046929817730878  0.3828604536672752  1.0000
  N   N2        1.0  0.08719208460977582  0.6004692980264076  0.6171395461809822  1.0000
  N   N3        1.0  0.5885254514133185  0.6296801402325284  0.6417583336890171  1.0000
  N   N4        1.0  0.4114745484917667  0.1296801403834296  0.35824166615924036  1.0000
  O   O1        1.0  0.7601275821988199  0.9371264355675768  0.39128234599906037  1.0000
  O   O2        1.0  0.2398724177062653  0.43712643571847803  0.6087176538491971  1.0000
  O   O3        1.0  0.740879199891673  0.7833450602974501  0.62427367805498  1.0000
  O   O4        1.0  0.2591208000227819  0.28334506044835134  0.375726322404427  1.0000
  O   O5        1.0  0.9791004600968266  0.7732493261426905  0.45089539616356134  1.0000
  O   O6        1.0  0.020899539808258497  0.2732493262935917  0.549104603684696  1.0000
  O   O7        1.0  0.03010456730901542  0.6786168427742756  0.3314280839224466  1.0000
  O   O8        1.0  0.9698954325960697  0.1786168429251768  0.6685719159258108  1.0000
  O   O9        1.0  0.5050643319981363  0.9276029762938616  0.5565142605942782  1.0000
  O   O10       1.0  0.4949356679069488  0.42760297644476286  0.4434857392539791  1.0000
  O   O11       1.0  0.4840376041809324  0.07076801674267885  0.6738316910852326  1.0000
  O   O12       1.0  0.5159623957241528  0.5707680165917776  0.32616830876302483  1.0000
  O   O13       1.0  0.43698489976866756  0.3485093883000598  0.588460379639623  1.0000
  O   O14       1.0  0.5630151001364176  0.8485093881491587  0.4115396202086344  1.0000
  O   O15       1.0  0.06795800333164981  0.3860924513031274  0.40672565770294095  1.0000
  O   O16       1.0  0.9320419965734353  0.8860924511522262  0.5932743421453164  1.0000
