data_image0
_chemical_formula_structural       H92C84N16O8S8Br4
_chemical_formula_sum              "H92 C84 N16 O8 S8 Br4"
_cell_length_a       17.139486339834043
_cell_length_b       9.326969581032381
_cell_length_c       13.848007223614674
_cell_angle_alpha    90.0
_cell_angle_beta     91.72714049638138
_cell_angle_gamma    90.0

_space_group_name_H-M_alt    "P 1"
_space_group_IT_number       1

loop_
  _space_group_symop_operation_xyz
  'x, y, z'

loop_
  _atom_site_type_symbol
  _atom_site_label
  _atom_site_symmetry_multiplicity
  _atom_site_fract_x
  _atom_site_fract_y
  _atom_site_fract_z
  _atom_site_occupancy
  H   H1        1.0  0.12488862238111204  0.08959290611383187  0.2163195223310799  1.0000
  H   H2        1.0  0.8751113771689333  0.5895929071306476  0.2836804775586148  1.0000
  H   H3        1.0  0.8751113771904281  0.9104070937754802  0.7836804780476415  1.0000
  H   H4        1.0  0.12488862238980236  0.41040709383082424  0.7163195220976772  1.0000
  H   H5        1.0  0.21030868142058984  0.12528888508186323  0.4031889580703321  1.0000
  H   H6        1.0  0.7896913181294556  0.6252888850265194  0.09681104181936258  1.0000
  H   H7        1.0  0.7896913181509503  0.8747111148074489  0.5968110423083894  1.0000
  H   H8        1.0  0.21030868142928014  0.3747111148627929  0.9031889578369295  1.0000
  H   H9        1.0  0.23983461497954686  0.2181355618589678  0.19497675151140023  1.0000
  H   H10       1.0  0.7601653851540713  0.7181355618036239  0.3050232483842231  1.0000
  H   H11       1.0  0.7601653851627616  0.7818644380303444  0.8050232481508204  1.0000
  H   H12       1.0  0.23983461500104164  0.2818644380856883  0.694976752000427  1.0000
  H   H13       1.0  0.08465192470781856  0.5746249157817848  0.46846504945966816  1.0000
  H   H14       1.0  0.9153480754257995  0.07462491583712859  0.031534950435955215  1.0000
  H   H15       1.0  0.9153480748509172  0.4253750841075275  0.5315349501966239  1.0000
  H   H16       1.0  0.08465192472931332  0.9253750840521837  0.968465049948695  1.0000
  H   H17       1.0  0.9991734847462286  0.6156592213699924  0.3966047762588693  1.0000
  H   H18       1.0  0.0008265153873894478  0.11565922142533627  0.10339522363675407  1.0000
  H   H19       1.0  0.0008265153960797819  0.38434077851931986  0.6033952234033514  1.0000
  H   H20       1.0  0.9991734847677234  0.8843407784639759  0.8966047767478962  1.0000
  H   H21       1.0  0.09351368843532643  0.6340759330905196  0.3447128734553147  1.0000
  H   H22       1.0  0.9064863116982917  0.1340759331458635  0.1552871264403087  1.0000
  H   H23       1.0  0.9064863117197864  0.3659240667987926  0.6552871269293354  1.0000
  H   H24       1.0  0.09351368844401675  0.8659240667434487  0.844712873221912  1.0000
  H   H25       1.0  0.8493564781505324  0.1941604884916492  0.39624537739404936  1.0000
  H   H26       1.0  0.1506435213995129  0.6941604884363053  0.10375462249564538  1.0000
  H   H27       1.0  0.15064352142100765  0.805839511397663  0.6037546229846722  1.0000
  H   H28       1.0  0.8493564781592228  0.3058395114530069  0.8962453771606468  1.0000
  H   H29       1.0  0.9013701423899733  0.14946221684210723  0.5079603494905204  1.0000
  H   H30       1.0  0.09862985776102558  0.6494622167867633  0.9920396499382976  1.0000
  H   H31       1.0  0.09862985775233524  0.850537783047205  0.4920396501717004  1.0000
  H   H32       1.0  0.9013701423812828  0.35053778310254885  0.007960349723922983  1.0000
  H   H33       1.0  0.8457375882899079  0.014501872105926662  0.44410667257344405  1.0000
  H   H34       1.0  0.15426241185651476  0.5145018720505827  0.05589332804460881  1.0000
  H   H35       1.0  0.15426241186520506  0.9854981288555451  0.5558933278112062  1.0000
  H   H36       1.0  0.8457375882985981  0.48549812891088906  0.9441066723400414  1.0000
  H   H37       1.0  0.2485343800146316  0.9914748804162412  0.1483472297128969  1.0000
  H   H38       1.0  0.7514656201317909  0.4914748804715851  0.3516527709051559  1.0000
  H   H39       1.0  0.7514656201404812  0.008525119473070997  0.8516527706717533  1.0000
  H   H40       1.0  0.24853438002332195  0.508525119417727  0.6483472294794942  1.0000
  H   H41       1.0  0.32147557263942395  0.7656570687785549  0.12031413547282636  1.0000
  H   H42       1.0  0.6785244274941943  0.26565706883389884  0.379685864422797  1.0000
  H   H43       1.0  0.6785244275028846  0.23434293111075727  0.8796858641893944  1.0000
  H   H44       1.0  0.32147557264811427  0.7343429310554133  0.6203141352394238  1.0000
  H   H45       1.0  0.36286485827422166  0.6115759497704527  0.2586708897460186  1.0000
  H   H46       1.0  0.6371351418593965  0.11157594982579659  0.24132911014960473  1.0000
  H   H47       1.0  0.6371351418680867  0.38842405011885955  0.741329109916202  1.0000
  H   H48       1.0  0.3628648582957164  0.8884240500635155  0.7586708902350453  1.0000
  H   H49       1.0  0.3324756567581352  0.683624336351083  0.4267026717896581  1.0000
  H   H50       1.0  0.6675243433754828  0.18362433640642684  0.07329732810596529  1.0000
  H   H51       1.0  0.6675243433841732  0.31637566353822927  0.5732973278725626  1.0000
  H   H52       1.0  0.33247565676682556  0.8163756634828854  0.9267026715562554  1.0000
  H   H53       1.0  0.26053137288128164  0.9100577305689543  0.45503532788978934  1.0000
  H   H54       1.0  0.7394686266815682  0.4100577306242982  0.044964672722334814  1.0000
  H   H55       1.0  0.7394686266902584  0.08994226932035788  0.5449646724889322  1.0000
  H   H56       1.0  0.26053137288997197  0.589942269265014  0.9550353276563868  1.0000
  H   H57       1.0  0.4848095068044989  0.32480023373944383  0.3297682425298816  1.0000
  H   H58       1.0  0.5151904933291194  0.8248002336840999  0.17023175736574178  1.0000
  H   H59       1.0  0.5151904927542369  0.6751997661498684  0.6702317571264105  1.0000
  H   H60       1.0  0.4848095068131892  0.17519976620521227  0.8297682422964788  1.0000
  H   H61       1.0  0.5654944810555895  0.48230399390903533  0.2283961183453902  1.0000
  H   H62       1.0  0.4345055190780286  0.9823039938536916  0.27160388155023313  1.0000
  H   H63       1.0  0.4345055190867189  0.5176960059802769  0.7716038813168306  1.0000
  H   H64       1.0  0.5654944810770843  0.017696006035620732  0.728396118834417  1.0000
  H   H65       1.0  0.5092837084383609  0.5864707451307607  0.07741127836863639  1.0000
  H   H66       1.0  0.4907162916952572  0.08647074518610462  0.42258872152698707  1.0000
  H   H67       1.0  0.49071629171675196  0.41352925475855146  0.9225887220160137  1.0000
  H   H68       1.0  0.5092837084470513  0.9135292547032076  0.5774112781352337  1.0000
  H   H69       1.0  0.37507416121874126  0.5178980297977268  0.019640972595753297  1.0000
  H   H70       1.0  0.6249258383313042  0.01789802985307071  0.4803590272939414  1.0000
  H   H71       1.0  0.6249258383527988  0.4821019700915854  0.9803590277829684  1.0000
  H   H72       1.0  0.3750741612274316  0.9821019700362414  0.5196409723623506  1.0000
  H   H73       1.0  0.29384774236049926  0.3607017038890801  0.11873513901834165  1.0000
  H   H74       1.0  0.7061522577731189  0.8607017038337362  0.38126486087728173  1.0000
  H   H75       1.0  0.7061522577818092  0.639298296000232  0.881264860643879  1.0000
  H   H76       1.0  0.2938477423691896  0.13929829605557595  0.618735138784939  1.0000
  H   H77       1.0  0.4718117052191345  0.24606014419379846  0.03457267592607889  1.0000
  H   H78       1.0  0.528188294927288  0.7460601441384546  0.46542732469197395  1.0000
  H   H79       1.0  0.5281882949359783  0.7539398567676734  0.9654273244585713  1.0000
  H   H80       1.0  0.47181170522782495  0.25393985575085765  0.5345726756926762  1.0000
  H   H81       1.0  0.5181868372371625  0.12087174405421554  0.11545096990707404  1.0000
  H   H82       1.0  0.4818131628964556  0.6208717439988717  0.3845490299885494  1.0000
  H   H83       1.0  0.48181316290514586  0.8791282569072563  0.8845490297551467  1.0000
  H   H84       1.0  0.5181868372586573  0.37912825696260016  0.6154509703961007  1.0000
  H   H85       1.0  0.6061295947174019  0.9435216447897888  0.04358362402409463  1.0000
  H   H86       1.0  0.3938704054162162  0.4435216448451327  0.4564163758715287  1.0000
  H   H87       1.0  0.3938704054377109  0.05647835509952341  0.9564163763605555  1.0000
  H   H88       1.0  0.6061295947260923  0.5564783550441795  0.543583623790692  1.0000
  H   H89       1.0  0.6182139689716987  0.9547960463074958  0.91610062070088  1.0000
  H   H90       1.0  0.3817860311921046  0.4547960463628399  0.5838993794503675  1.0000
  H   H91       1.0  0.38178603117060983  0.04520395358181625  0.0838993789613407  1.0000
  H   H92       1.0  0.6182139689630083  0.5452039535264723  0.4161006209342827  1.0000
  C   C1        1.0  0.011942243061449519  0.20862079082546164  0.35724458130312775  1.0000
  C   C2        1.0  0.9880577570721686  0.7086207907701177  0.14275541859249566  1.0000
  C   C3        1.0  0.9880577570936633  0.7913792090638506  0.6427554190815224  1.0000
  C   C4        1.0  0.011942243070139852  0.29137920911919446  0.857244581069725  1.0000
  C   C5        1.0  0.2100130045728415  0.10586004933562912  0.32483877323128063  1.0000
  C   C6        1.0  0.7899869955607766  0.6058600492802851  0.17516122666434272  1.0000
  C   C7        1.0  0.7899869955822715  0.8941399505536831  0.6751612271533696  1.0000
  C   C8        1.0  0.21001300458153183  0.39413995060902696  0.824838772997878  1.0000
  C   C9        1.0  0.24933116993360582  0.2318498233764629  0.27360475842311105  1.0000
  C   C10       1.0  0.7506688302000123  0.731849823321119  0.22639524147251236  1.0000
  C   C11       1.0  0.7506688302087027  0.7681501765128493  0.7263952412391097  1.0000
  C   C12       1.0  0.2493311693715278  0.2681501765681932  0.7736047589062092  1.0000
  C   C13       1.0  0.1126708161120036  0.34820461048834256  0.32630635016438503  1.0000
  C   C14       1.0  0.8873291840216144  0.8482046104329987  0.17369364973123835  1.0000
  C   C15       1.0  0.8873291840431093  0.6517953894009696  0.6736936502202651  1.0000
  C   C16       1.0  0.11267081612069393  0.15179538945631355  0.8263063499309823  1.0000
  C   C17       1.0  0.05858339029114258  0.5720641558487223  0.39503633020813134  1.0000
  C   C18       1.0  0.9414166098552801  0.07206415483190654  0.10496367040992148  1.0000
  C   C19       1.0  0.9414166098639702  0.42793584511274957  0.6049636701765188  1.0000
  C   C20       1.0  0.0585833902998329  0.9279358450574057  0.8950363299747286  1.0000
  C   C21       1.0  0.8815408246549952  0.11112192990397636  0.43662931577181924  1.0000
  C   C22       1.0  0.11845917547862288  0.6111219298486325  0.06337068412380417  1.0000
  C   C23       1.0  0.11845917550011761  0.8888780699853359  0.563370684612831  1.0000
  C   C24       1.0  0.8815408246636857  0.38887807004067976  0.9366293155384166  1.0000
  C   C25       1.0  0.25117816673419185  0.9666015463730181  0.3043667049373105  1.0000
  C   C26       1.0  0.7488218333994262  0.4666015464283619  0.19563329495831294  1.0000
  C   C27       1.0  0.7488218334209209  0.033398453516294196  0.6956332954473397  1.0000
  C   C28       1.0  0.25117816674288224  0.5333984534609503  0.8043667047039078  1.0000
  C   C29       1.0  0.2672441783974688  0.9246375315234404  0.20972757757644842  1.0000
  C   C30       1.0  0.7327558217361494  0.4246375315787845  0.290272422319175  1.0000
  C   C31       1.0  0.732755821757644  0.07536246836587164  0.7902724228082018  1.0000
  C   C32       1.0  0.2672441784061591  0.5753624683105277  0.7097275773430457  1.0000
  C   C33       1.0  0.3070321637609986  0.7964507480657783  0.19360854884833803  1.0000
  C   C34       1.0  0.6929678363726194  0.29645074812112227  0.3063914510472854  1.0000
  C   C35       1.0  0.6929678363941143  0.2035492518235338  0.8063914515363121  1.0000
  C   C36       1.0  0.307032163769689  0.7035492517681899  0.6936085486149354  1.0000
  C   C37       1.0  0.33065246542699916  0.7099220333542773  0.271424080541492  1.0000
  C   C38       1.0  0.6693475347066189  0.20992203340962118  0.22857591935413138  1.0000
  C   C39       1.0  0.6693475347153094  0.29007796760719456  0.7285759191207287  1.0000
  C   C40       1.0  0.3306524654484939  0.7900779675518506  0.7714240810305187  1.0000
  C   C41       1.0  0.31337512333515644  0.7498992549760002  0.3656094063289217  1.0000
  C   C42       1.0  0.6866248767984617  0.24989925503134414  0.13439059356670172  1.0000
  C   C43       1.0  0.6866248768071521  0.25010074491331197  0.6343905933332991  1.0000
  C   C44       1.0  0.3133751233438467  0.7501007448579681  0.865609406095519  1.0000
  C   C45       1.0  0.27370055708519264  0.8776577782184557  0.3816237509498895  1.0000
  C   C46       1.0  0.7262994424648527  0.3776577782737995  0.11837624893980521  1.0000
  C   C47       1.0  0.726299442473543  0.12234222167085658  0.6183762487064025  1.0000
  C   C48       1.0  0.273700557093883  0.6223422216155127  0.8816237507164869  1.0000
  C   C49       1.0  0.33578839109707465  0.2500007370820549  0.3003950570596692  1.0000
  C   C50       1.0  0.6642116090365435  0.7500007370267109  0.19960494283595423  1.0000
  C   C51       1.0  0.6642116090452339  0.7499992628072573  0.6996049426025516  1.0000
  C   C52       1.0  0.33578839110576497  0.24999926286260124  0.8003950568262664  1.0000
  C   C53       1.0  0.3834602135800425  0.3342289242949314  0.23304784666742376  1.0000
  C   C54       1.0  0.6165397859700028  0.8342289242395875  0.26695215322227095  1.0000
  C   C55       1.0  0.6165397859914976  0.6657710755943808  0.7669521537112977  1.0000
  C   C56       1.0  0.38346021358873283  0.16577107564972468  0.7330478464340211  1.0000
  C   C57       1.0  0.4609330761748292  0.36682335031495816  0.2617637143341111  1.0000
  C   C58       1.0  0.5390669233752162  0.8668233502596142  0.2382362855555836  1.0000
  C   C59       1.0  0.5390669233839065  0.633176649574354  0.7382362853221809  1.0000
  C   C60       1.0  0.460933076196324  0.13317664962969794  0.7617637148231379  1.0000
  C   C61       1.0  0.5057273681289367  0.456520973185022  0.20555220637125104  1.0000
  C   C62       1.0  0.49427263200468136  0.9565209731296782  0.2944477935243723  1.0000
  C   C63       1.0  0.4942726320133718  0.5434790267042903  0.7944477932909697  1.0000
  C   C64       1.0  0.5057273681376271  0.04347902675963408  0.7055522061378484  1.0000
  C   C65       1.0  0.4740734066645795  0.5141423286886295  0.11976202484192654  1.0000
  C   C66       1.0  0.5259265934690386  0.014142328743973424  0.38023797505369683  1.0000
  C   C67       1.0  0.5259265934905333  0.4858576712006827  0.8802379755427236  1.0000
  C   C68       1.0  0.4740734066732698  0.9858576711453387  0.619762024608524  1.0000
  C   C69       1.0  0.39834187069055443  0.4777099079492035  0.08848452897382084  1.0000
  C   C70       1.0  0.6016581294430636  0.9777099078938596  0.4115154709218025  1.0000
  C   C71       1.0  0.601658129451754  0.5222900919401088  0.9115154706884  1.0000
  C   C72       1.0  0.39834187069924476  0.02229009199545262  0.5884845287404182  1.0000
  C   C73       1.0  0.352839281789712  0.38821614443382935  0.14452262709161376  1.0000
  C   C74       1.0  0.6471607183567105  0.8882161443784854  0.3554773735264391  1.0000
  C   C75       1.0  0.6471607183654009  0.6117838554554829  0.8554773732930364  1.0000
  C   C76       1.0  0.35283928179840235  0.11178385551082676  0.6445226268582112  1.0000
  C   C77       1.0  0.49191320779480785  0.1352111582485091  0.04237055446837325  1.0000
  C   C78       1.0  0.5080867923388103  0.6352111581931652  0.45762944542725015  1.0000
  C   C79       1.0  0.5080867923475005  0.864788841640803  0.9576294451938475  1.0000
  C   C80       1.0  0.49191320781630266  0.364788841696147  0.5423705549574  1.0000
  C   C81       1.0  0.5760700567580863  0.9668749695870473  0.9736597435094155  1.0000
  C   C82       1.0  0.4239299433929125  0.4668749696423912  0.5263402559194026  1.0000
  C   C83       1.0  0.42392994338422224  0.03312503030226483  0.026340256152805226  1.0000
  C   C84       1.0  0.5760700567493959  0.5331250302469209  0.47365974374281816  1.0000
  N   N1        1.0  0.05442963363759748  0.4245888405225894  0.3624142137055021  1.0000
  N   N2        1.0  0.9455703664960204  0.9245888404672455  0.1375857861901213  1.0000
  N   N3        1.0  0.9455703665175156  0.5754111593667228  0.637585786679148  1.0000
  N   N4        1.0  0.054429633646287806  0.07541115942206673  0.8624142134720995  1.0000
  N   N5        1.0  0.9907523112692966  0.33992768845816956  0.38138531394812025  1.0000
  N   N6        1.0  0.009247688864321512  0.8399276884028257  0.11861468594750317  1.0000
  N   N7        1.0  0.009247688873011846  0.6600723114311425  0.6186146857141005  1.0000
  N   N8        1.0  0.9907523112907916  0.1600723114864865  0.881385314437147  1.0000
  N   N9        1.0  0.08566873609566808  0.21129010370181436  0.3195292029972908  1.0000
  N   N10       1.0  0.9143312634543773  0.7112901047186301  0.1804707968924039  1.0000
  N   N11       1.0  0.914331263475872  0.7887098961874979  0.6804707973814307  1.0000
  N   N12       1.0  0.0856687361043584  0.2887098962428417  0.8195292027638881  1.0000
  N   N13       1.0  0.1274570176903852  0.09097380801214967  0.29153635597897937  1.0000
  N   N14       1.0  0.8725429824432329  0.5909738090289653  0.20846364391664407  1.0000
  N   N15       1.0  0.8725429824519233  0.9090261918771626  0.7084636436832414  1.0000
  N   N16       1.0  0.12745701769907555  0.40902619193250644  0.7915363557455768  1.0000
  O   O1        1.0  0.362865425604383  0.19830630666592913  0.37624546529106684  1.0000
  O   O2        1.0  0.637134574529235  0.6983063066105852  0.12375453460455654  1.0000
  O   O3        1.0  0.6371345745379254  0.8016936932233831  0.6237545343711539  1.0000
  O   O4        1.0  0.36286542562587776  0.30169369327872697  0.8762454657800937  1.0000
  O   O5        1.0  0.5506231115266138  0.11355248891921126  0.9718382324797334  1.0000
  O   O6        1.0  0.449376888624385  0.6135524888638674  0.5281617669490847  1.0000
  O   O7        1.0  0.44937688861569464  0.886447510970101  0.028161767182487262  1.0000
  O   O8        1.0  0.5506231115179234  0.38644751102544483  0.4718382327131361  1.0000
  S   S1        1.0  0.2041190948717723  0.4070492271917295  0.3001999279026368  1.0000
  S   S2        1.0  0.7958809052746503  0.9070492271363855  0.19980007271541605  1.0000
  S   S3        1.0  0.7958809052833405  0.5929507726975827  0.6998000724820134  1.0000
  S   S4        1.0  0.20411909488046262  0.09295077275292661  0.8001999276692342  1.0000
  S   S5        1.0  0.9633038336964023  0.048188410618816575  0.36982959333591825  1.0000
  S   S6        1.0  0.03669616643721592  0.5481884105634727  0.13017040655970508  1.0000
  S   S7        1.0  0.03669616644590626  0.9518115892704956  0.6301704063263025  1.0000
  S   S8        1.0  0.9633038337050924  0.45181158932583954  0.8698295931025157  1.0000
  Br  Br1       1.0  0.14351628861253918  0.21680124743970466  0.06292297103901462  1.0000
  Br  Br2       1.0  0.8564837115210789  0.7168012473843608  0.43707702885660876  1.0000
  Br  Br3       1.0  0.8564837115297693  0.7831987524496075  0.9370770286232061  1.0000
  Br  Br4       1.0  0.14351628863403396  0.28319875250495147  0.5629229715280415  1.0000
