data_image0
_chemical_formula_structural       H36C52N8O8Br4
_chemical_formula_sum              "H36 C52 N8 O8 Br4"
_cell_length_a       3.9316161651870782
_cell_length_b       12.117438264985786
_cell_length_c       25.020307931837664
_cell_angle_alpha    90.0
_cell_angle_beta     91.62330998469375
_cell_angle_gamma    90.0

_space_group_name_H-M_alt    "P 1"
_space_group_IT_number       1

loop_
  _space_group_symop_operation_xyz
  'x, y, z'

loop_
  _atom_site_type_symbol
  _atom_site_label
  _atom_site_symmetry_multiplicity
  _atom_site_fract_x
  _atom_site_fract_y
  _atom_site_fract_z
  _atom_site_occupancy
  H   H1        1.0  0.1707961377692645  0.23860001485251153  0.3758760941188831  1.0000
  H   H2        1.0  0.8292038605148129  0.7386000146467837  0.12412390572395841  1.0000
  H   H3        1.0  0.8292038604732915  0.76139998556129  0.6241239055475564  1.0000
  H   H4        1.0  0.17079613783552694  0.2613999857670177  0.8758760943422774  1.0000
  H   H5        1.0  0.8349176169135957  0.3518621672965463  0.31012853297829407  1.0000
  H   H6        1.0  0.1650823839127024  0.8518621679160755  0.18987146685893397  1.0000
  H   H7        1.0  0.165082383871181  0.6481378322919983  0.6898714666825319  1.0000
  H   H8        1.0  0.8349176169798581  0.148137832497726  0.8101285332016884  1.0000
  H   H9        1.0  0.6182495758301146  0.268428530756275  0.22499406245024242  1.0000
  H   H10       1.0  0.3817504251039672  0.7684285305505472  0.2750059377867819  1.0000
  H   H11       1.0  0.38175042506244583  0.7315714688322696  0.77500593761038  1.0000
  H   H12       1.0  0.6182495757885932  0.23157146903799733  0.7249940622738403  1.0000
  H   H13       1.0  0.04410514590453305  0.9546101566223717  0.2739417831553112  1.0000
  H   H14       1.0  0.9558948549217651  0.45461015682809935  0.2260582166819168  1.0000
  H   H15       1.0  0.9558948549880274  0.04538984296617295  0.726058216905311  1.0000
  H   H16       1.0  0.04410514597079544  0.5453898435857022  0.7739417833787056  1.0000
  H   H17       1.0  0.5543837119893386  0.8825058107290092  0.38165167294302027  1.0000
  H   H18       1.0  0.44561628629473904  0.38250581010948004  0.11834832689982122  1.0000
  H   H19       1.0  0.4456162862532176  0.11749418968479228  0.6183483267234191  1.0000
  H   H20       1.0  0.5543837120556009  0.6174941894790645  0.8816516731664147  1.0000
  H   H21       1.0  0.16724194432254896  0.315206648177174  0.6274581888567015  1.0000
  H   H22       1.0  0.8327580565284901  0.8152066479714463  0.8725418110275188  1.0000
  H   H23       1.0  0.8327580565700116  0.6847933522366275  0.3725418112039209  1.0000
  H   H24       1.0  0.1672419443640704  0.18479335244235526  0.1274581890331035  1.0000
  H   H25       1.0  0.8371056005536703  0.4294352689244837  0.5607860611116791  1.0000
  H   H26       1.0  0.16289440029736865  0.9294352695440129  0.9392139387725411  1.0000
  H   H27       1.0  0.1628944003388901  0.5705647306640609  0.4392139389489432  1.0000
  H   H28       1.0  0.8371056005951919  0.0705647308697886  0.06078606128808111  1.0000
  H   H29       1.0  0.9020270258571352  0.15451755140443427  0.45042521724671264  1.0000
  H   H30       1.0  0.0979729749691629  0.6545175511987066  0.04957478259051533  1.0000
  H   H31       1.0  0.0979729750354253  0.8454824490093673  0.5495747828139097  1.0000
  H   H32       1.0  0.9020270259233976  0.34548244921509497  0.950425217470107  1.0000
  H   H33       1.0  0.2463228192514279  0.054505932323045736  0.521859500179846  1.0000
  H   H34       1.0  0.7536771815996112  0.554505932117318  0.9781404997043743  1.0000
  H   H35       1.0  0.7536771816411326  0.9454940680907558  0.47814049988077634  1.0000
  H   H36       1.0  0.24632281929294933  0.4454940674712266  0.021859500356247997  1.0000
  C   C1        1.0  0.06924745078679136  0.20187237900509075  0.3390412001733477  1.0000
  C   C2        1.0  0.9307525501472906  0.70187237962462  0.16095880006367666  1.0000
  C   C3        1.0  0.9307525501057691  0.7981276205834539  0.6609587998872746  1.0000
  C   C4        1.0  0.06924745074526995  0.29812762078918154  0.8390411999969457  1.0000
  C   C5        1.0  0.8854639504282283  0.26524482978282127  0.30188673251329423  1.0000
  C   C6        1.0  0.11453605050585354  0.7652448304023505  0.1981132677237301  1.0000
  C   C7        1.0  0.11453605046433214  0.7347551698057233  0.698113267547328  1.0000
  C   C8        1.0  0.8854639503867069  0.23475517001145102  0.8018867323368922  1.0000
  C   C9        1.0  0.7621253066994276  0.21869832814890836  0.2540536696395508  1.0000
  C   C10       1.0  0.2378746916924337  0.7186983279431806  0.24594633060308715  1.0000
  C   C11       1.0  0.23787469165091224  0.7813016722648932  0.745946330426685  1.0000
  C   C12       1.0  0.7621253066579061  0.2813016724706209  0.7540536694631487  1.0000
  C   C13       1.0  0.8228212439730633  0.10704454948601479  0.24465958291090142  1.0000
  C   C14       1.0  0.17717875696101862  0.607044550105544  0.25534041732612295  1.0000
  C   C15       1.0  0.1771787569194972  0.8929554501025299  0.7553404171497209  1.0000
  C   C16       1.0  0.8228212439315419  0.3929554503082575  0.7446595827344994  1.0000
  C   C17       1.0  0.002905723659819025  0.04187188074777414  0.2813962202186421  1.0000
  C   C18       1.0  0.997094277166479  0.5418718813673034  0.21860377961858593  1.0000
  C   C19       1.0  0.9970942771249577  0.9581281188407704  0.7186037794421839  1.0000
  C   C20       1.0  0.0029057237260814344  0.45812811904649814  0.7813962204420364  1.0000
  C   C21       1.0  0.12880030219713096  0.08992893103064456  0.3288952198508248  1.0000
  C   C22       1.0  0.8711996986291671  0.5899289308249168  0.17110477998640317  1.0000
  C   C23       1.0  0.8711996986954295  0.910071069383157  0.6711047802097974  1.0000
  C   C24       1.0  0.12880030226339337  0.41007106876362776  0.8288952200742192  1.0000
  C   C25       1.0  0.3281493621734576  0.02284050258376329  0.3686793799833651  1.0000
  C   C26       1.0  0.6718506361106199  0.5228405032032926  0.1313206198594764  1.0000
  C   C27       1.0  0.6718506361768822  0.9771594970047813  0.6313206200828707  1.0000
  C   C28       1.0  0.32814936223972  0.477159497210509  0.8686793802067594  1.0000
  C   C29       1.0  0.10604472578871657  0.2831524349428179  0.5876505813914179  1.0000
  C   C30       1.0  0.8939552750623225  0.7831524355623473  0.9123494184928023  1.0000
  C   C31       1.0  0.8939552751038439  0.7168475646457266  0.4123494186692044  1.0000
  C   C32       1.0  0.10604472583023802  0.2168475648514544  0.08765058156782  1.0000
  C   C33       1.0  0.9240012629799803  0.34689781437932754  0.5505740641556647  1.0000
  C   C34       1.0  0.07599873787105885  0.8468978149988567  0.9494259357285556  1.0000
  C   C35       1.0  0.07599873791258024  0.653102185209217  0.4494259359049576  1.0000
  C   C36       1.0  0.9240012630215017  0.15310218541494475  0.050574064332066807  1.0000
  C   C37       1.0  0.8523530072037858  0.30056268910599415  0.5000835837525159  1.0000
  C   C38       1.0  0.14764699121281652  0.8005626897255235  0.9999164165371143  1.0000
  C   C39       1.0  0.1476469911465541  0.6994373104825504  0.49991641631371997  1.0000
  C   C40       1.0  0.8523530071375233  0.19943731068827814  8.358352912152124e-05  1.0000
  C   C41       1.0  0.9607972569238261  0.19303977778530435  0.4887727901969626  1.0000
  C   C42       1.0  0.03920274390247198  0.6930397775795766  0.011227209640265383  1.0000
  C   C43       1.0  0.03920274396873438  0.8069602226284971  0.5112272098636597  1.0000
  C   C44       1.0  0.9607972568823047  0.30696022200896794  0.9887727900205605  1.0000
  C   C45       1.0  0.14628838386430298  0.1370388454792716  0.5284120423734432  1.0000
  C   C46       1.0  0.8537116144445155  0.6370388460988008  0.9715879575163905  1.0000
  C   C47       1.0  0.8537116144860368  0.8629611541092729  0.4715879576927926  1.0000
  C   C48       1.0  0.14628838390582444  0.3629611543150007  0.02841204254984529  1.0000
  C   C49       1.0  0.6708958332133028  0.36354987115795034  0.4604340327974316  1.0000
  C   C50       1.0  0.32910416761299527  0.8635498717774797  0.03956596703979638  1.0000
  C   C51       1.0  0.32910416757147387  0.6364501284305942  0.5395659668633943  1.0000
  C   C52       1.0  0.6708958332795653  0.13645012863632192  0.960434033020826  1.0000
  N   N1        1.0  0.5238444542643235  0.41697175009341186  0.4286065452378671  1.0000
  N   N2        1.0  0.4761555441275379  0.9169717498876843  0.07139345500477082  1.0000
  N   N3        1.0  0.47615554408601646  0.5830282503203895  0.5713934548283687  1.0000
  N   N4        1.0  0.5238444542228019  0.0830282505261173  0.9286065450614649  1.0000
  N   N5        1.0  0.21743648289118514  0.18123861429902455  0.5766300237052795  1.0000
  N   N6        1.0  0.7825635155254171  0.6812386140932969  0.9233699765843507  1.0000
  N   N7        1.0  0.7825635154591547  0.818761386114777  0.4233699763609563  1.0000
  N   N8        1.0  0.21743648282492276  0.3187613863205047  0.07663002348188516  1.0000
  O   O1        1.0  0.4003837308275184  0.9214311280844886  0.3520465500677539  1.0000
  O   O2        1.0  0.5996162701065635  0.42143112829021623  0.14795345016927045  1.0000
  O   O3        1.0  0.5996162700650421  0.07856887150405605  0.6479534499928683  1.0000
  O   O4        1.0  0.40038373078599704  0.5785688712983283  0.852046549891352  1.0000
  O   O5        1.0  0.41907953827501626  0.058949290632167944  0.41316751843499866  1.0000
  O   O6        1.0  0.5809204625512817  0.5589492904264403  0.08683248140222934  1.0000
  O   O7        1.0  0.5809204626175443  0.9410507097816336  0.5868324816256236  1.0000
  O   O8        1.0  0.41907953834127876  0.4410507091621043  0.9131675186583931  1.0000
  Br  Br1       1.0  0.6534994032332038  0.03936785396121509  0.18039956609351754  1.0000
  Br  Br2       1.0  0.34650059770087815  0.5393678537554873  0.3196004341435068  1.0000
  Br  Br3       1.0  0.3465005976593567  0.9606321464525864  0.8196004339671048  1.0000
  Br  Br4       1.0  0.6534994031916823  0.46063214583305717  0.6803995659171154  1.0000
