data_image0
_chemical_formula_structural       H84B4C102N4O6
_chemical_formula_sum              "H84 B4 C102 N4 O6"
_cell_length_a       11.568649786056271
_cell_length_b       12.997370798389154
_cell_length_c       14.13618665071006
_cell_angle_alpha    70.62926984248062
_cell_angle_beta     84.21945976890292
_cell_angle_gamma    82.75985634293936

_space_group_name_H-M_alt    "P 1"
_space_group_IT_number       1

loop_
  _space_group_symop_operation_xyz
  'x, y, z'

loop_
  _atom_site_type_symbol
  _atom_site_label
  _atom_site_symmetry_multiplicity
  _atom_site_fract_x
  _atom_site_fract_y
  _atom_site_fract_z
  _atom_site_occupancy
  H   H1        1.0  0.8476078044791326  0.6508232171730444  0.4734447920766134  1.0000
  H   H2        1.0  0.15239219573544224  0.34917678258006585  0.5265552072502029  1.0000
  H   H3        1.0  0.851652068912624  0.45348818740267816  0.49356370430602536  1.0000
  H   H4        1.0  0.14834793125382936  0.5465118120848163  0.5064362957721099  1.0000
  H   H5        1.0  0.9395704473599219  0.38330562795330836  0.3561076169575709  1.0000
  H   H6        1.0  0.06042955285465283  0.616694371799802  0.6438923823692453  1.0000
  H   H7        1.0  0.026217726727419177  0.5104877185080261  0.1999988446792652  1.0000
  H   H8        1.0  0.9737822733769251  0.489512282020397  0.8000011546482801  1.0000
  H   H9        1.0  0.021365888166910263  0.7081473936151969  0.1795751497371686  1.0000
  H   H10       1.0  0.9786341111347829  0.2918526058699031  0.820424850346821  1.0000
  H   H11       1.0  0.16910837971198453  0.7878360535972981  0.30009472011102434  1.0000
  H   H12       1.0  0.8308916203442385  0.21216394666550903  0.69990527996784  1.0000
  H   H13       1.0  0.31674420768151157  0.8967771491781871  0.1816011001305995  1.0000
  H   H14       1.0  0.6832557924228327  0.1032228513502361  0.8183988991969459  1.0000
  H   H15       1.0  0.2534386796971318  0.06384798833223025  0.0431253096078743  1.0000
  H   H16       1.0  0.7465613203590913  0.936152011930577  0.9568746904709902  1.0000
  H   H17       1.0  0.04120596617826706  0.1234106371529322  0.02374580268768501  1.0000
  H   H18       1.0  0.9587940338779558  0.876589363109875  0.9762541973911794  1.0000
  H   H19       1.0  0.8950455164847347  0.015172286834176785  0.1405246575136198  1.0000
  H   H20       1.0  0.10495448368171882  0.9848277126533175  0.8594753425645155  1.0000
  H   H21       1.0  0.5844627646534514  0.8486117377574717  0.3767228136166033  1.0000
  H   H22       1.0  0.41553723464824177  0.15138826172762843  0.6232771864673862  1.0000
  H   H23       1.0  0.47401355380221605  0.7510315471099315  0.13936263820819172  1.0000
  H   H24       1.0  0.5259864463642374  0.24896845237756296  0.8606373618699434  1.0000
  H   H25       1.0  0.6699658635065858  0.7758196383163035  0.05228942642588252  1.0000
  H   H26       1.0  0.33003413665986764  0.22418036117119108  0.9477105736522528  1.0000
  H   H27       1.0  0.825174339755938  0.8345856164799299  0.12762412505803955  1.0000
  H   H28       1.0  0.17482566030028504  0.16541438378287746  0.8723758750208249  1.0000
  H   H29       1.0  0.4313984509033743  0.7855699712619296  0.3039148189075158  1.0000
  H   H30       1.0  0.568601548398319  0.2144300282231704  0.6960851811764738  1.0000
  H   H31       1.0  0.6901569452423766  0.020285587561200327  0.30518441612075925  1.0000
  H   H32       1.0  0.30984305492407693  0.9797144119262942  0.6948155839573761  1.0000
  H   H33       1.0  0.7681204932711353  0.16946535498313361  0.3514013680991063  1.0000
  H   H34       1.0  0.23187950592032744  0.8305346452772792  0.6485986319856124  1.0000
  H   H35       1.0  0.10820433528600136  0.7866877766067161  0.536836601164208  1.0000
  H   H36       1.0  0.8917956648804521  0.21331222288077833  0.4631633989139273  1.0000
  H   H37       1.0  0.38876959241732645  0.11626494330132482  0.11905556106807713  1.0000
  H   H38       1.0  0.6112304068222577  0.8837350572247038  0.8809444382653225  1.0000
  H   H39       1.0  0.5546585335002884  0.04623703382656181  0.02562868011906654  1.0000
  H   H40       1.0  0.4453414666661651  0.9537629656609325  0.9743713199590688  1.0000
  H   H41       1.0  0.753787393031156  0.09810852137325353  0.02615741462312058  1.0000
  H   H42       1.0  0.24621260702506695  0.9018914788895538  0.9738425854557439  1.0000
  H   H43       1.0  0.786462955969038  0.2179375328395759  0.12467993170306488  1.0000
  H   H44       1.0  0.21353704419741557  0.7820624666479183  0.8753200683750705  1.0000
  H   H45       1.0  0.6204871930511534  0.28819442902033277  0.21867584849028843  1.0000
  H   H46       1.0  0.37951280705319107  0.7118055715080902  0.7813241508372569  1.0000
  H   H47       1.0  0.2787644800140292  0.37854626325103224  0.3583811401021378  1.0000
  H   H48       1.0  0.7212355200421938  0.6214537370117749  0.6416188599767265  1.0000
  H   H49       1.0  0.22771414215011396  0.5787938483470961  0.31632001204940036  1.0000
  H   H50       1.0  0.772285857906109  0.4212061519157111  0.6836799880294642  1.0000
  H   H51       1.0  0.2803305442357726  0.7040370474828582  0.14539911702277283  1.0000
  H   H52       1.0  0.7196694558204505  0.2959629527799491  0.8546008830560915  1.0000
  H   H53       1.0  0.3884506020883463  0.627670580084792  0.018670757018554744  1.0000
  H   H54       1.0  0.6115493979678768  0.3723294201780152  0.9813292430603097  1.0000
  H   H55       1.0  0.4394403170643345  0.42691743981824587  0.06098912780442935  1.0000
  H   H56       1.0  0.5605596830400099  0.5730825607101772  0.9390108715231161  1.0000
  H   H57       1.0  0.2849614993639181  0.31680953451517974  0.047422393958260575  1.0000
  H   H58       1.0  0.7150385008025354  0.6831904649723147  0.9525776061198747  1.0000
  H   H59       1.0  0.11717586567731986  0.40156500526994493  0.9402486766815837  1.0000
  H   H60       1.0  0.8828241343789032  0.5984349949928622  0.059751323397280676  1.0000
  H   H61       1.0  0.914175838997671  0.39437039207752567  0.0166226136007282  1.0000
  H   H62       1.0  0.08582416105855216  0.6056296081852818  0.9833773864781361  1.0000
  H   H63       1.0  0.8793488545252671  0.3028516697446719  0.20223979364902886  1.0000
  H   H64       1.0  0.1206511455309559  0.6971483305181353  0.7977602064298356  1.0000
  H   H65       1.0  0.04563025739966454  0.21238819078240098  0.30617834503977676  1.0000
  H   H66       1.0  0.9543697426565585  0.7876118094804062  0.6938216550390877  1.0000
  H   H67       1.0  0.18712287711952674  0.05832981902729651  0.2971074117011806  1.0000
  H   H68       1.0  0.8128771229366962  0.9416701812355109  0.7028925883776839  1.0000
  H   H69       1.0  0.5767220401132943  0.20723577459154216  0.45865325963518505  1.0000
  H   H70       1.0  0.4232779599429288  0.7927642256712651  0.5413467404436794  1.0000
  H   H71       1.0  0.712714318274352  0.11624282102980973  0.5944554590036083  1.0000
  H   H72       1.0  0.287285681781871  0.8837571792329975  0.4055445410752561  1.0000
  H   H73       1.0  0.7330612377646304  0.45517242465761054  0.1690923983573591  1.0000
  H   H74       1.0  0.2669387614268325  0.5448275756028021  0.8309076017273596  1.0000
  H   H75       1.0  0.720792893949867  0.5751137452178785  0.20698982670762636  1.0000
  H   H76       1.0  0.27920710524159587  0.4248862550425341  0.7930101733770922  1.0000
  H   H77       1.0  0.5942302791679306  0.5322563733576625  0.17648301771548427  1.0000
  H   H78       1.0  0.4057697209985229  0.46774362612983184  0.823516982362651  1.0000
  H   H79       1.0  0.5759303612621404  0.4315735570539118  0.46340863155249035  1.0000
  H   H80       1.0  0.4240696379293224  0.5684264432065008  0.5365913685322283  1.0000
  H   H81       1.0  0.4952897559713369  0.5134765243457351  0.3572335582470073  1.0000
  H   H82       1.0  0.5047102440848861  0.4865234759170722  0.6427664418318569  1.0000
  H   H83       1.0  0.6190648491184181  0.5628223392217558  0.3854866032748607  1.0000
  H   H84       1.0  0.38093515093780483  0.43717766104105144  0.6145133968040036  1.0000
  B   B1        1.0  0.929336109075618  0.8220391415617603  0.3134608143332556  1.0000
  B   B2        1.0  0.0706638911389567  0.17796085819134996  0.6865391849935608  1.0000
  B   B3        1.0  0.38769555459233507  0.25636510326280204  0.24087004007465027  1.0000
  B   B4        1.0  0.6123044454638881  0.7436348970000051  0.7591299600042142  1.0000
  C   C1        1.0  0.9319274292469564  0.6951343939726702  0.3238444073208883  1.0000
  C   C2        1.0  0.06807257080926683  0.3048656062901371  0.6761555927579761  1.0000
  C   C3        1.0  0.8845448470722513  0.6210459914197762  0.4120145864068009  1.0000
  C   C4        1.0  0.11545515314232335  0.37895400833333404  0.5879854129200154  1.0000
  C   C5        1.0  0.8868017232015938  0.5099100908978355  0.4237992964848272  1.0000
  C   C6        1.0  0.11319827685462937  0.4900899093649718  0.5762007035940371  1.0000
  C   C7        1.0  0.9370241461455153  0.4699984272280212  0.3471046986341997  1.0000
  C   C8        1.0  0.06297585402093811  0.5300015722594733  0.6528953014439356  1.0000
  C   C9        1.0  0.9845390551731268  0.5418121802287269  0.2590065520468442  1.0000
  C   C10       1.0  0.015460944883096319  0.4581878200340802  0.7409934480320203  1.0000
  C   C11       1.0  0.9817664160896946  0.6529737753565164  0.24796243762615597  1.0000
  C   C12       1.0  0.018233583966528317  0.34702622490629087  0.7520375624527085  1.0000
  C   C13       1.0  0.020031577964510435  0.8924967421650247  0.22943441465754633  1.0000
  C   C14       1.0  0.9799684212750734  0.10750325836100383  0.7705655846758533  1.0000
  C   C15       1.0  0.14060757846943306  0.8612638585447039  0.23906449053055306  1.0000
  C   C16       1.0  0.8593924215867901  0.13873614171810336  0.7609355095483112  1.0000
  C   C17       1.0  0.2238797389682061  0.9221616636920444  0.17304508337933694  1.0000
  C   C18       1.0  0.7761202610880169  0.07783833657076278  0.8269549166995275  1.0000
  C   C19       1.0  0.18851025515040512  0.016755606393134198  0.09512339346720153  1.0000
  C   C20       1.0  0.811489744905818  0.983244393869673  0.9048766066116629  1.0000
  C   C21       1.0  0.06990187901069413  0.04946608131087521  0.08385910324694862  1.0000
  C   C22       1.0  0.9300981201807687  0.9505339189495376  0.9161408968377701  1.0000
  C   C23       1.0  0.9873745731847473  0.9876062202846578  0.15036676857677042  1.0000
  C   C24       1.0  0.01262542698170609  0.012393779202836637  0.8496332315013648  1.0000
  C   C25       1.0  0.7127731855960695  0.8468511688135059  0.25537574429555376  1.0000
  C   C26       1.0  0.28722681446015363  0.15314883144930133  0.7446242557833107  1.0000
  C   C27       1.0  0.6023192399005676  0.8335837658973093  0.30502949300257515  1.0000
  C   C28       1.0  0.397680760265886  0.166416233590185  0.6949705070755602  1.0000
  C   C29       1.0  0.540459056466041  0.7782125001089951  0.17241123299572547  1.0000
  C   C30       1.0  0.4595409437004125  0.22178749937849937  0.8275887670824098  1.0000
  C   C31       1.0  0.651318321437284  0.7915108610628512  0.123560930630168  1.0000
  C   C32       1.0  0.3486816786189391  0.20848913919995601  0.8764390694486964  1.0000
  C   C33       1.0  0.7385062072135138  0.8241517403385523  0.16513011984557538  1.0000
  C   C34       1.0  0.26149379284270924  0.17584825992425504  0.834869880233289  1.0000
  C   C35       1.0  0.5166385883341056  0.7982497142161239  0.2637714943625698  1.0000
  C   C36       1.0  0.4833614117221175  0.20175028604668324  0.7362285057162946  1.0000
  C   C37       1.0  0.7743539580372404  0.9721465926975649  0.32338130802735765  1.0000
  C   C38       1.0  0.22564604217733428  0.027853407055545325  0.6766186912994587  1.0000
  C   C39       1.0  0.9401922619422131  0.9240670647183719  0.4273932972493064  1.0000
  C   C40       1.0  0.05980773735948019  0.07593293476672805  0.5726067028346832  1.0000
  C   C41       1.0  0.8529456988168708  0.004546265004035759  0.3770439637916762  1.0000
  C   C42       1.0  0.14705430123935234  0.9954537352587715  0.6229560362871882  1.0000
  C   C43       1.0  0.8361818263342441  0.109116633219203  0.39009942698191025  1.0000
  C   C44       1.0  0.1638181738322094  0.8908833662682913  0.609900573096225  1.0000
  C   C45       1.0  0.009165631762534324  0.9466282879893717  0.4949754518602235  1.0000
  C   C46       1.0  0.9908343675391589  0.05337171149572817  0.505024548223766  1.0000
  C   C47       1.0  0.09550972841287411  0.8662701345636906  0.5481086996584412  1.0000
  C   C48       1.0  0.9044902716433488  0.1337298656991167  0.4518913004204232  1.0000
  C   C49       1.0  0.49034814201591687  0.21054646843216704  0.17417451402673043  1.0000
  C   C50       1.0  0.509651857175546  0.7894535318282457  0.8258254860579882  1.0000
  C   C51       1.0  0.475380264099289  0.14102693901402044  0.11951402168532234  1.0000
  C   C52       1.0  0.5246197359569341  0.8589730612487868  0.880485978393542  1.0000
  C   C53       1.0  0.5689722902377771  0.10059899377235068  0.06687955811563458  1.0000
  C   C54       1.0  0.431027709818446  0.8994010064904565  0.9331204419632297  1.0000
  C   C55       1.0  0.6810481158231192  0.1287997051227274  0.06788493037055678  1.0000
  C   C56       1.0  0.3189518842331039  0.8712002951400798  0.9321150697083076  1.0000
  C   C57       1.0  0.6987519294103423  0.19657103491647107  0.12289478225721437  1.0000
  C   C58       1.0  0.30124807075611126  0.8034289645710233  0.8771052178209209  1.0000
  C   C59       1.0  0.604756950571167  0.23659361342868399  0.17511514264109726  1.0000
  C   C60       1.0  0.395243049485056  0.7634063868341231  0.8248848574377672  1.0000
  C   C61       1.0  0.36175353663128035  0.38707676244324735  0.2123117515917798  1.0000
  C   C62       1.0  0.6382464635351732  0.6129232370442471  0.7876882484863555  1.0000
  C   C63       1.0  0.3034320049112777  0.4327760200307518  0.2835246037011189  1.0000
  C   C64       1.0  0.6965679951449455  0.5672239802320554  0.7164753963777455  1.0000
  C   C65       1.0  0.27537042728884004  0.5456776305117581  0.2605186320379445  1.0000
  C   C66       1.0  0.7246295728155043  0.4543223700166651  0.7394813672896008  1.0000
  C   C67       1.0  0.30495533580666273  0.6161114023283976  0.16475176430892463  1.0000
  C   C68       1.0  0.6950446642495605  0.38388859793440955  0.8352482357699398  1.0000
  C   C69       1.0  0.3647236813815307  0.5729095605473957  0.09331356807395215  1.0000
  C   C70       1.0  0.6352763187849229  0.4270904389400986  0.9066864320041832  1.0000
  C   C71       1.0  0.3926920117515536  0.4597827817905417  0.11739339100109794  1.0000
  C   C72       1.0  0.6073079883046694  0.5402172184722654  0.8826066090777666  1.0000
  C   C73       1.0  0.17484856508623  0.2562344460970551  0.18217485472294795  1.0000
  C   C74       1.0  0.8251514342154633  0.7437655533880447  0.8178251453610416  1.0000
  C   C75       1.0  0.19558085223548616  0.31241612053753937  0.07977653149188477  1.0000
  C   C76       1.0  0.804419147820737  0.687583879725268  0.9202234685869796  1.0000
  C   C77       1.0  0.10143173277582102  0.3602179511763766  0.020558094837202365  1.0000
  C   C78       1.0  0.8985682673906323  0.6397820483111178  0.979441905240933  1.0000
  C   C79       1.0  0.9870898464018975  0.3557097474008849  0.0635383678865903  1.0000
  C   C80       1.0  0.012910153654325686  0.6442902528619223  0.9364616321922742  1.0000
  C   C81       1.0  0.9673773943626449  0.30337026788619076  0.16652740099383664  1.0000
  C   C82       1.0  0.03262260580380869  0.6966297316013036  0.8334725990842986  1.0000
  C   C83       1.0  0.06093139676807468  0.25272517063053807  0.22571469222480342  1.0000
  C   C84       1.0  0.9390686032881485  0.7472748296322691  0.774285307854061  1.0000
  C   C85       1.0  0.26210566893939896  0.09979646985371987  0.30136808403631177  1.0000
  C   C86       1.0  0.7378943312270546  0.9002035296337745  0.6986319160418236  1.0000
  C   C87       1.0  0.34757512361202564  0.04380382188233777  0.3715181774632482  1.0000
  C   C88       1.0  0.6524248764441973  0.9561961783804694  0.6284818226156161  1.0000
  C   C89       1.0  0.42303289494302093  0.10752144883857054  0.3961578546418336  1.0000
  C   C90       1.0  0.5769671051132023  0.8924785514242368  0.6038421454370307  1.0000
  C   C91       1.0  0.5000468512867864  0.057576338286084654  0.47510450370460544  1.0000
  C   C92       1.0  0.49995314795279766  0.942423662239944  0.5248954956287942  1.0000
  C   C93       1.0  0.5761867108751819  0.12047415676246455  0.5009978554867739  1.0000
  C   C94       1.0  0.4238132892912715  0.8795258427250299  0.4990021445913615  1.0000
  C   C95       1.0  0.6512640295081383  0.07019176455858624  0.5756520408031157  1.0000
  C   C96       1.0  0.34873597054808475  0.929808235704221  0.4243479592757487  1.0000
  C   C97       1.0  0.6584818793667998  0.4346789530079052  0.31945125819740544  1.0000
  C   C98       1.0  0.34151811993489345  0.5653210464771948  0.680548741886584  1.0000
  C   C99       1.0  0.6783576313471139  0.5026198838458845  0.21098500078420646  1.0000
  C   C100      1.0  0.32164236881933944  0.49738011564160994  0.7890149992939288  1.0000
  C   C101      1.0  0.582717421268399  0.4882617308502455  0.3863709450246383  1.0000
  C   C102      1.0  0.4172825787878241  0.5117382694125618  0.613629055054226  1.0000
  N   N1        1.0  0.7997392117786322  0.8838223085387948  0.2969115232556317  1.0000
  N   N2        1.0  0.20026078838782146  0.11617769094869945  0.7030884768225036  1.0000
  N   N3        1.0  0.26976641966416565  0.20114312877326065  0.2421553698408344  1.0000
  N   N4        1.0  0.7302335803920573  0.7988568714895465  0.75784463023803  1.0000
  O   O1        1.0  0.9568417552384214  0.8265156351995596  0.41509751229004516  1.0000
  O   O2        1.0  0.04315824486592305  0.17348436532886352  0.5849024870375003  1.0000
  O   O3        1.0  0.4206867641343446  0.21423256843524963  0.34926829678111404  1.0000
  O   O4        1.0  0.5793132359218786  0.7857674318275576  0.6507317032977503  1.0000
  O   O5        1.0  0.7019163001785489  0.339131374852846  0.3521761319459371  1.0000
  O   O6        1.0  0.2980836998776741  0.6608686254099613  0.6478238681329272  1.0000
