data_image0
_chemical_formula_structural       H12C22N2F8Cl2
_chemical_formula_sum              "H12 C22 N2 F8 Cl2"
_cell_length_a       6.275096571072767
_cell_length_b       7.093854982459922
_cell_length_c       12.434043035040476
_cell_angle_alpha    73.55695245123684
_cell_angle_beta     86.04225356768127
_cell_angle_gamma    84.00419828301459

_space_group_name_H-M_alt    "P 1"
_space_group_IT_number       1

loop_
  _space_group_symop_operation_xyz
  'x, y, z'

loop_
  _atom_site_type_symbol
  _atom_site_label
  _atom_site_symmetry_multiplicity
  _atom_site_fract_x
  _atom_site_fract_y
  _atom_site_fract_z
  _atom_site_occupancy
  H   H1        1.0  0.7717540711239039  0.1838356862973948  0.5597509588600822  1.0000
  H   H2        1.0  0.2282459291936253  0.8161643143787664  0.44024904054022823  1.0000
  H   H3        1.0  0.4561137880886066  0.1763633670219807  0.6929959002563312  1.0000
  H   H4        1.0  0.5438862105687033  0.8236366332459037  0.3070040999832072  1.0000
  H   H5        1.0  0.4997621782077276  0.026284533586735437  0.8977084160542731  1.0000
  H   H6        1.0  0.5002378220428471  0.973715466683943  0.10229158418528923  1.0000
  H   H7        1.0  0.8599516186465873  0.8826823432670042  0.9688902658927192  1.0000
  H   H8        1.0  0.14004838160398725  0.11731765700367412  0.0311097343468431  1.0000
  H   H9        1.0  0.1740701979049345  0.8887283851325892  0.8352361513273877  1.0000
  H   H10       1.0  0.8259298024125947  0.11127161554357182  0.16476384807292258  1.0000
  H   H11       1.0  0.13109280859840639  0.04218977698410632  0.6307575921195675  1.0000
  H   H12       1.0  0.8689071917191229  0.9578102236920548  0.369242407280743  1.0000
  C   C1        1.0  0.7904463800135554  0.11720566455129744  0.649261057704487  1.0000
  C   C2        1.0  0.20955362023701932  0.8827943357193809  0.35073894253507526  1.0000
  C   C3        1.0  0.6132356132108352  0.11291843625132426  0.724209601556305  1.0000
  C   C4        1.0  0.3867643872100446  0.8870815626005563  0.2757903986860887  1.0000
  C   C5        1.0  0.6379719483946552  0.02865117432355018  0.8392107866685474  1.0000
  C   C6        1.0  0.3620280518559195  0.9713488259471282  0.16078921357101492  1.0000
  C   C7        1.0  0.8396869730207398  0.9480536006202109  0.8792790403092381  1.0000
  C   C8        1.0  0.1603130272298348  0.05194639965046756  0.1207209599303242  1.0000
  C   C9        1.0  0.016618192809374786  0.9516307544961948  0.8042028310542891  1.0000
  C   C10       1.0  0.9833818076784597  0.048369244761168224  0.1957971683488528  1.0000
  C   C11       1.0  0.9924729725219252  0.03672754153431255  0.6892607461105891  1.0000
  C   C12       1.0  0.0075270277286494545  0.963272458736366  0.3107392541289732  1.0000
  C   C13       1.0  0.7222514665342088  0.6775205666332365  0.6262177039446984  1.0000
  C   C14       1.0  0.27774853388667115  0.3224794322186439  0.37378229629769544  1.0000
  C   C15       1.0  0.6599641174759532  0.6128344273507116  0.7392404098949652  1.0000
  C   C16       1.0  0.3400358829449267  0.3871655715011688  0.2607595903474286  1.0000
  C   C17       1.0  0.8117002578264163  0.5005354989347243  0.8143998019463596  1.0000
  C   C18       1.0  0.18829974242415828  0.49946450133595416  0.18560019829320268  1.0000
  C   C19       1.0  0.016929816847631927  0.4581776903381971  0.7710080406161971  1.0000
  C   C20       1.0  0.9830701834029428  0.5418223099324813  0.22899195962336535  1.0000
  C   C21       1.0  0.05838072945774301  0.5308624482536846  0.6561122026344527  1.0000
  C   C22       1.0  0.9416192707928316  0.46913755201699375  0.3438877976051097  1.0000
  N   N1        1.0  0.9156938921346429  0.6376456167400012  0.5863219423054474  1.0000
  N   N2        1.0  0.08430610669297223  0.3623543821090854  0.4136780579369222  1.0000
  F   F1        1.0  0.5795240471523342  0.7884393035157478  0.552487623816548  1.0000
  F   F2        1.0  0.4204759515049758  0.21156069675213696  0.4475123764229902  1.0000
  F   F3        1.0  0.459708522902022  0.6582766395945562  0.7759974750349472  1.0000
  F   F4        1.0  0.5402914759255932  0.34172335925453035  0.2240025252074223  1.0000
  F   F5        1.0  0.17055318682866524  0.3514594591890356  0.8389267604077537  1.0000
  F   F6        1.0  0.8294468135922146  0.648540539662845  0.16107323983464006  1.0000
  F   F7        1.0  0.2558187436701361  0.4925854133574508  0.6125149462072134  1.0000
  F   F8        1.0  0.7441812565804385  0.5074145869132276  0.38748505403234895  1.0000
  Cl  Cl1       1.0  0.7491297823025376  0.4213212518030901  0.9538209906365598  1.0000
  Cl  Cl2       1.0  0.2508702181183423  0.5786787470487902  0.046179009605833994  1.0000
