data_image0
_chemical_formula_structural       H20C40N8F16I4
_chemical_formula_sum              "H20 C40 N8 F16 I4"
_cell_length_a       7.251830640883546
_cell_length_b       13.665848090010893
_cell_length_c       11.17001549973394
_cell_angle_alpha    90.0
_cell_angle_beta     94.27022714957545
_cell_angle_gamma    90.0

_space_group_name_H-M_alt    "P 1"
_space_group_IT_number       1

loop_
  _space_group_symop_operation_xyz
  'x, y, z'

loop_
  _atom_site_type_symbol
  _atom_site_label
  _atom_site_symmetry_multiplicity
  _atom_site_fract_x
  _atom_site_fract_y
  _atom_site_fract_z
  _atom_site_occupancy
  H   H1        1.0  0.40876424377001425  0.5059782052644263  0.09140270417041943  1.0000
  H   H2        1.0  0.09123575583025023  0.005978205630700442  0.40859729600493383  1.0000
  H   H3        1.0  0.5912357567056771  0.4940217947347766  0.9085972952820348  1.0000
  H   H4        1.0  0.9087642433702788  0.9940217943685024  0.5914027043457726  1.0000
  H   H5        1.0  0.39499515029424714  0.3304733720332464  0.02646396580859747  1.0000
  H   H6        1.0  0.10500485068492119  0.8304733723987234  0.4735360343662496  1.0000
  H   H7        1.0  0.605004850181444  0.6695266279659564  0.9735360336438567  1.0000
  H   H8        1.0  0.8949951498945117  0.16952662760047943  0.5264639659839507  1.0000
  H   H9        1.0  0.4780168205624103  0.1999208429659796  0.1814947162900896  1.0000
  H   H10       1.0  0.021983179037854267  0.6999208425997056  0.3185052838852636  1.0000
  H   H11       1.0  0.5219831786381188  0.8000791570332233  0.818505284060617  1.0000
  H   H12       1.0  0.9780168215415785  0.3000791573994974  0.6814947164649365  1.0000
  H   H13       1.0  0.5682623893553755  0.2518071207388386  0.39191073482537697  1.0000
  H   H14       1.0  0.9317376105589553  0.7518071211043156  0.10808926572147899  1.0000
  H   H15       1.0  0.4317376112240573  0.7481928792603643  0.6080892655248232  1.0000
  H   H16       1.0  0.06826238864157362  0.24819287889488723  0.8919107346292274  1.0000
  H   H17       1.0  0.5807823804348718  0.4307177469872862  0.4409419215203355  1.0000
  H   H18       1.0  0.9192176194794591  0.9307177466210119  0.05905807902652051  1.0000
  H   H19       1.0  0.4192176187656571  0.5692822530119167  0.5590580788303708  1.0000
  H   H20       1.0  0.08078238109997375  0.06928225337819083  0.9409419213236796  1.0000
  C   C1        1.0  0.4279257603906566  0.9739695635669392  0.157552415819994  1.0000
  C   C2        1.0  0.07207423910586627  0.4739695632014622  0.3424475834576133  1.0000
  C   C3        1.0  0.5720742400850346  0.026030436432263635  0.8424475836324603  1.0000
  C   C4        1.0  0.9279257599909211  0.5260304367977406  0.6575524159953472  1.0000
  C   C5        1.0  0.4337728572001113  0.8721720197308661  0.16014930466553218  1.0000
  C   C6        1.0  0.06622714240015329  0.3721720193653891  0.339850695509821  1.0000
  C   C7        1.0  0.5662271420004178  0.12782798026833675  0.8398506956851743  1.0000
  C   C8        1.0  0.9337728581792797  0.6278279806338137  0.6601493048403793  1.0000
  C   C9        1.0  0.5086682624815512  0.8250597793664639  0.2636179832964039  1.0000
  C   C10       1.0  0.9913317387079419  0.3250597797327381  0.23638201635219994  1.0000
  C   C11       1.0  0.49133173799414  0.17494022063273895  0.7363820161560504  1.0000
  C   C12       1.0  0.00866826176774929  0.6749402202664648  0.7636179831002543  1.0000
  C   C13       1.0  0.5795758515795795  0.8851146412816856  0.3570864464488077  1.0000
  C   C14       1.0  0.9204241482310099  0.38511464091620856  0.14291355320030236  1.0000
  C   C15       1.0  0.4204241489998533  0.11488535871751729  0.6429135539013925  1.0000
  C   C16       1.0  0.07957585086577756  0.6148853590829942  0.8570864462526582  1.0000
  C   C17       1.0  0.5738589708260965  0.986207192647731  0.3419382485090653  1.0000
  C   C18       1.0  0.9261410289844928  0.486207192282254  0.15806175114004478  1.0000
  C   C19       1.0  0.42614102964959477  0.013792807351471864  0.658061750943389  1.0000
  C   C20       1.0  0.07385897011229454  0.5137928077169489  0.8419382483129157  1.0000
  C   C21       1.0  0.44491048639604414  0.44696836740522633  0.1546777318529953  1.0000
  C   C22       1.0  0.05508951320422031  0.9469683670389523  0.3453222683223579  1.0000
  C   C23       1.0  0.5550895128044848  0.5530316325939765  0.8453222684977111  1.0000
  C   C24       1.0  0.9449104873752125  0.05303163296025064  0.6546777320278423  1.0000
  C   C25       1.0  0.4359933510328441  0.3492544479174139  0.11943229608250744  1.0000
  C   C26       1.0  0.0640066499463243  0.8492544482828909  0.3805677040923396  1.0000
  C   C27       1.0  0.5640066494428472  0.650745552081789  0.8805677033699467  1.0000
  C   C28       1.0  0.9359933506331085  0.15074555171631196  0.6194322962578607  1.0000
  C   C29       1.0  0.4822346396068278  0.27721118989820265  0.2048663375755161  1.0000
  C   C30       1.0  0.01776535999343671  0.7772111902636796  0.29513366259983714  1.0000
  C   C31       1.0  0.5177653609726051  0.7227888101010002  0.7951336627746842  1.0000
  C   C32       1.0  0.9822346392070923  0.22278880973552317  0.7048663377508693  1.0000
  C   C33       1.0  0.5341639572337961  0.3060088215861813  0.32236123431103064  1.0000
  C   C34       1.0  0.9658360425767932  0.8060088212199071  0.17763876533807946  1.0000
  C   C35       1.0  0.46583604324189515  0.6939911784130216  0.6776387651414236  1.0000
  C   C36       1.0  0.034163956519994196  0.1939911787792957  0.8223612341148812  1.0000
  C   C37       1.0  0.5404720548516858  0.40549573458602545  0.35008397330276386  1.0000
  C   C38       1.0  0.9595279449589035  0.9054957342197513  0.1499160263463462  1.0000
  C   C39       1.0  0.4595279456240054  0.5945042654131774  0.6499160261496905  1.0000
  C   C40       1.0  0.04047205413788387  0.09450426577945156  0.8500839731066142  1.0000
  N   N1        1.0  0.498081574015908  0.029571683172403673  0.2455082618692642  1.0000
  N   N2        1.0  0.001918426963260342  0.5295716835378806  0.2544917383055828  1.0000
  N   N3        1.0  0.5019184265635248  0.9704283168267992  0.754491738480936  1.0000
  N   N4        1.0  0.9980815735124309  0.47042831646132216  0.7455082611468715  1.0000
  N   N5        1.0  0.49733274741632394  0.47491203745663957  0.26744573233619545  1.0000
  N   N6        1.0  0.002667252183940556  0.9749120370903654  0.23255426783915775  1.0000
  N   N7        1.0  0.5026672516804634  0.5250879625425633  0.7325542671167651  1.0000
  N   N8        1.0  0.9973327483954922  0.02508796290883742  0.7674457325110424  1.0000
  F   F1        1.0  0.345092303846143  0.02036375263116057  0.06081652209039331  1.0000
  F   F2        1.0  0.15490769575412147  0.5203637522648864  0.43918347808495994  1.0000
  F   F3        1.0  0.6549076953543859  0.9796362473680422  0.9391834782603131  1.0000
  F   F4        1.0  0.8450923047215697  0.4796362477343164  0.5608165213674944  1.0000
  F   F5        1.0  0.36663659384883707  0.820499898443629  0.06331937640735669  1.0000
  F   F6        1.0  0.13336340713033137  0.32049989807815205  0.43668062376749034  1.0000
  F   F7        1.0  0.6333634066268542  0.1795001015555738  0.9366806230450977  1.0000
  F   F8        1.0  0.8666365934491015  0.6795001019210508  0.5633193765827099  1.0000
  F   F9        1.0  0.6524482295993981  0.8466327888173368  0.4616414430609955  1.0000
  F   F10       1.0  0.8475517702111912  0.3466327884518599  0.03835855658811455  1.0000
  F   F11       1.0  0.34755176949738936  0.15336721118186594  0.538358556391965  1.0000
  F   F12       1.0  0.15244823026449997  0.6533672115473429  0.9616414428643398  1.0000
  F   F13       1.0  0.6494072030587459  0.044975272368881575  0.4302732090005075  1.0000
  F   F14       1.0  0.850592796855585  0.5449752727343586  0.06972679154634853  1.0000
  F   F15       1.0  0.350592797520687  0.9550247276303213  0.5697267913496928  1.0000
  F   F16       1.0  0.14940720234494398  0.4550247272648443  0.9302732088043578  1.0000
  I   I1        1.0  0.5098420972199006  0.670294544448774  0.27735656756154825  1.0000
  I   I2        1.0  0.9901579026944304  0.1702945448150481  0.2226434329853078  1.0000
  I   I3        1.0  0.4901579019806284  0.32970545555042885  0.7226434327891583  1.0000
  I   I4        1.0  0.00984209788500254  0.8297054551841547  0.7773565673648924  1.0000
