data_image0
_chemical_formula_structural       H46C46N4O8Cl4
_chemical_formula_sum              "H46 C46 N4 O8 Cl4"
_cell_length_a       10.341196673242132
_cell_length_b       10.432974426029626
_cell_length_c       11.08428150607819
_cell_angle_alpha    67.22995564077036
_cell_angle_beta     74.14455390251379
_cell_angle_gamma    81.51092756390578

_space_group_name_H-M_alt    "P 1"
_space_group_IT_number       1

loop_
  _space_group_symop_operation_xyz
  'x, y, z'

loop_
  _atom_site_type_symbol
  _atom_site_label
  _atom_site_symmetry_multiplicity
  _atom_site_fract_x
  _atom_site_fract_y
  _atom_site_fract_z
  _atom_site_occupancy
  H   H1        1.0  0.7085493178103303  0.14563135796066887  0.4088961235408268  1.0000
  H   H2        1.0  0.2914506828105458  0.8543686414721109  0.5911038763300562  1.0000
  H   H3        1.0  0.4626967307304231  0.4229465772904287  0.6538465678378758  1.0000
  H   H4        1.0  0.5373032687767144  0.5770534231090263  0.34615343202873905  1.0000
  H   H5        1.0  0.48125837176994485  0.040432441951195185  0.7439202440121111  1.0000
  H   H6        1.0  0.5187416288509314  0.9595675574815844  0.25607975585877196  1.0000
  H   H7        1.0  0.37600482939392044  0.868697386045762  0.9667368832488001  1.0000
  H   H8        1.0  0.623995170113217  0.1313026143536931  0.03326311661781475  1.0000
  H   H9        1.0  0.24687040448835817  0.950544670339323  0.15059919938867303  1.0000
  H   H10       1.0  0.7531295951668318  0.04945532909053881  0.8494008004792309  1.0000
  H   H11       1.0  0.9154495597296155  0.2293980825429759  0.5589533813737388  1.0000
  H   H12       1.0  0.08455044089126053  0.770601916889804  0.44104661849714427  1.0000
  H   H13       1.0  0.8930233463677063  0.1402866728215106  0.4572476306327496  1.0000
  H   H14       1.0  0.1069766531394312  0.8597133275779444  0.542752369233865  1.0000
  H   H15       1.0  0.8583817635759187  0.059290674865095955  0.6353018713858869  1.0000
  H   H16       1.0  0.14161823680346394  0.9407093241896861  0.3646981294921  1.0000
  H   H17       1.0  0.5910688505636729  0.5182087501857183  0.9028953720954319  1.0000
  H   H18       1.0  0.40893114894346466  0.48179125021373675  0.09710462777118281  1.0000
  H   H19       1.0  0.7610371902980843  0.5072812219994013  0.8094228555125328  1.0000
  H   H20       1.0  0.23896280920905336  0.4927187784000536  0.19057714435408188  1.0000
  H   H21       1.0  0.6928392662920233  0.3607979982955084  0.954137615408083  1.0000
  H   H22       1.0  0.3071607340873593  0.6392020007592736  0.045862385469904024  1.0000
  H   H23       1.0  0.040118181962530544  0.38465152797557794  0.6299686331616519  1.0000
  H   H24       1.0  0.9598818176926591  0.6153484714542837  0.3700313667062521  1.0000
  H   H25       1.0  0.10805134862269107  0.5431372407119456  0.5099590258694273  1.0000
  H   H26       1.0  0.8919486510324987  0.4568627587179162  0.4900409739984766  1.0000
  H   H27       1.0  0.9505848072793684  0.586318862281852  0.7030921310699382  1.0000
  H   H28       1.0  0.04941519319345548  0.41368113812052104  0.2969078687996556  1.0000
  H   H29       1.0  0.11561821901070635  0.6168511061125177  0.7019163131046869  1.0000
  H   H30       1.0  0.8843817804964313  0.3831488942869373  0.2980836867619277  1.0000
  H   H31       1.0  0.03885808789948623  0.46113887336330966  0.8190762894832425  1.0000
  H   H32       1.0  0.9611419116076514  0.5388611270361451  0.1809237103833724  1.0000
  H   H33       1.0  0.38704809007326063  0.14086991191740525  0.40327949007773883  1.0000
  H   H34       1.0  0.6129519103995634  0.8591300884849677  0.5967205097918549  1.0000
  H   H35       1.0  0.5602213153293999  0.1429086216918676  0.31445551872184696  1.0000
  H   H36       1.0  0.4397786843257901  0.857091377737994  0.6855444811460569  1.0000
  H   H37       1.0  0.45247375904352577  0.29736291243708374  0.2828857318638875  1.0000
  H   H38       1.0  0.5475262404636116  0.7026370879623713  0.7171142680027273  1.0000
  H   H39       1.0  0.8164033205080681  0.30191458801798793  0.13668059839744062  1.0000
  H   H40       1.0  0.18359667996475584  0.6980854123843852  0.8633194014721532  1.0000
  H   H41       1.0  0.9393223581361957  0.24179641736395818  0.9392876959852138  1.0000
  H   H42       1.0  0.06067764137094199  0.7582035830354968  0.060712303881400885  1.0000
  H   H43       1.0  0.9627039703333135  0.8145844948680795  0.21159983376706362  1.0000
  H   H44       1.0  0.037296030139510654  0.18541550553429345  0.7884001661025302  1.0000
  H   H45       1.0  0.8321446367886105  0.8906590841071157  0.39605692730741177  1.0000
  H   H46       1.0  0.16785536247703334  0.10934091591434164  0.6039430735663067  1.0000
  C   C1        1.0  0.7083556932463527  0.21290993324986812  0.5623055813077594  1.0000
  C   C2        1.0  0.29164430722647133  0.787090067152505  0.43769441856183433  1.0000
  C   C3        1.0  0.6368778482492388  0.2822409344061442  0.6444982808683511  1.0000
  C   C4        1.0  0.36312215125789876  0.7177590659933109  0.3555017189982635  1.0000
  C   C5        1.0  0.48550433291629275  0.3150752002945566  0.6590459033649025  1.0000
  C   C6        1.0  0.5144956675565313  0.6849248001078163  0.34095409650469133  1.0000
  C   C7        1.0  0.43746005776167524  0.2970959929330767  0.5485054596435573  1.0000
  C   C8        1.0  0.562539941652021  0.7029040061187872  0.4514945412314505  1.0000
  C   C9        1.0  0.5175817118991963  0.23077921011687424  0.46745938418706917  1.0000
  C   C10       1.0  0.4824182876079412  0.769220790282581  0.5325406156795455  1.0000
  C   C11       1.0  0.41183798529714805  0.21903223091512894  0.7982605811497216  1.0000
  C   C12       1.0  0.5881620151756758  0.7809677694872442  0.2017394187198722  1.0000
  C   C13       1.0  0.4232989025016648  0.07574764707868033  0.8244125866915581  1.0000
  C   C14       1.0  0.5767010979711592  0.9242523533236926  0.1755874131780356  1.0000
  C   C15       1.0  0.3650018490961716  0.9795037305927204  0.9489607051424264  1.0000
  C   C16       1.0  0.6349981505590182  0.02049626883714129  0.05103929472547758  1.0000
  C   C17       1.0  0.293545660647252  0.02437556396349189  0.052568370041952334  1.0000
  C   C18       1.0  0.706454338618392  0.9756244360579651  0.9474316308317663  1.0000
  C   C19       1.0  0.28080699492057265  0.16616315732801445  0.029447308880993683  1.0000
  C   C20       1.0  0.7191930057003039  0.8338368421047654  0.9705526909898894  1.0000
  C   C21       1.0  0.33802836267145836  0.2642126968761674  0.9025719890567455  1.0000
  C   C22       1.0  0.6619716368356792  0.7357873035232876  0.09742801080986928  1.0000
  C   C23       1.0  0.8522496964986843  0.1589007911644787  0.5516392327219967  1.0000
  C   C24       1.0  0.1477503031565057  0.8410992082653831  0.44836076714590745  1.0000
  C   C25       1.0  0.7016090616083219  0.32101535380812624  0.7260735292306367  1.0000
  C   C26       1.0  0.29839093804686784  0.6789846456217353  0.2739264706372672  1.0000
  C   C27       1.0  0.670037923585467  0.4499493672863035  0.8678604324024061  1.0000
  C   C28       1.0  0.32996207703540925  0.5500506321464763  0.132139567468477  1.0000
  C   C29       1.0  0.30062780779899617  0.3464231857600518  0.5345077500484032  1.0000
  C   C30       1.0  0.6993721926738279  0.6535768146423212  0.4654922498211907  1.0000
  C   C31       1.0  0.1035510690114022  0.4686084692457784  0.6129382035448739  1.0000
  C   C32       1.0  0.8964489304957355  0.5313915311536765  0.3870617963217408  1.0000
  C   C33       1.0  0.04964703406332261  0.5366884482253518  0.7157593529384321  1.0000
  C   C34       1.0  0.9503529665575539  0.46331155120742784  0.284240646932451  1.0000
  C   C35       1.0  0.4780248762125091  0.2008366871135529  0.36080055758797575  1.0000
  C   C36       1.0  0.5219751234426807  0.7991633123163089  0.6391994422799282  1.0000
  C   C37       1.0  0.8494308722262813  0.19398311826777595  0.14902084653249434  1.0000
  C   C38       1.0  0.1505691272808563  0.8060168821316789  0.8509791533341203  1.0000
  C   C39       1.0  0.920426222504325  0.16017143651811838  0.038627075914316564  1.0000
  C   C40       1.0  0.07957377811655122  0.8398285629146616  0.9613729239565664  1.0000
  C   C41       1.0  0.9628634968611485  0.02108550666537035  0.057063275047417046  1.0000
  C   C42       1.0  0.037136503759727796  0.9789144927674093  0.942936724823466  1.0000
  C   C43       1.0  0.9309574344757193  0.9235520761808408  0.18876280516918892  1.0000
  C   C44       1.0  0.06904256503141826  0.07644792421861431  0.8112371946974257  1.0000
  C   C45       1.0  0.8585850771825  0.9663963575581803  0.29327296391363605  1.0000
  C   C46       1.0  0.14141492232463776  0.03360364284127462  0.7067270359529787  1.0000
  N   N1        1.0  0.6467871235127371  0.18519334256297348  0.4802106059292379  1.0000
  N   N2        1.0  0.3532128771081391  0.8148066568698066  0.519789393941645  1.0000
  N   N3        1.0  0.8173218148840594  0.09949401732716888  0.2747407982791755  1.0000
  N   N4        1.0  0.1826781855887647  0.9005059830752041  0.7252592015904182  1.0000
  O   O1        1.0  0.2418778301016398  0.3320477546956164  0.45737683632578274  1.0000
  O   O2        1.0  0.7581221705192365  0.6679522447371636  0.5426231635451002  1.0000
  O   O3        1.0  0.23875447138791572  0.4121154534985605  0.6220380426591218  1.0000
  O   O4        1.0  0.7612455281192219  0.5878845469008944  0.377961957207493  1.0000
  O   O5        1.0  0.8163879748165417  0.28599055410575175  0.7449020979190683  1.0000
  O   O6        1.0  0.18361202469059593  0.7140094462937031  0.25509790194754645  1.0000
  O   O7        1.0  0.6171772988289564  0.40436487026193735  0.7852571534458076  1.0000
  O   O8        1.0  0.3828227008262335  0.5956351291679243  0.21474284642209643  1.0000
  Cl  Cl1       1.0  0.19359433558939979  0.21852696126160237  0.1612862406923401  1.0000
  Cl  Cl2       1.0  0.8064056648834242  0.7814730391407707  0.8387137591772537  1.0000
  Cl  Cl3       1.0  0.31456918851307936  0.4390000055083312  0.8790341777229506  1.0000
  Cl  Cl4       1.0  0.6854308119597446  0.5609999948940417  0.12096582214664335  1.0000
