data_image0
_chemical_formula_structural       H20C40N8F20
_chemical_formula_sum              "H20 C40 N8 F20"
_cell_length_a       5.573707451430844
_cell_length_b       11.480978853322405
_cell_length_c       15.359483936001187
_cell_angle_alpha    90.00001539767766
_cell_angle_beta     90.00021272900275
_cell_angle_gamma    90.00006361250381

_space_group_name_H-M_alt    "P 1"
_space_group_IT_number       1

loop_
  _space_group_symop_operation_xyz
  'x, y, z'

loop_
  _atom_site_type_symbol
  _atom_site_label
  _atom_site_symmetry_multiplicity
  _atom_site_fract_x
  _atom_site_fract_y
  _atom_site_fract_z
  _atom_site_occupancy
  H   H1        1.0  0.6957214706973133  0.26647465606310217  0.4404123906258465  1.0000
  H   H2        1.0  0.8042786332798113  0.7335271257265457  0.9404125000351182  1.0000
  H   H3        1.0  0.19572193897460632  0.23352711423641356  0.5595875824678539  1.0000
  H   H4        1.0  0.3042853688275628  0.7664737586208027  0.059585160393233236  1.0000
  H   H5        1.0  0.7345563563293191  0.41105871721775095  0.5608379449125398  1.0000
  H   H6        1.0  0.7654440565411869  0.5889431406549102  0.06083786244579902  1.0000
  H   H7        1.0  0.23455599520537343  0.08894327347170314  0.4391621360561047  1.0000
  H   H8        1.0  0.2654441393363257  0.9110585293125566  0.9391603802304199  1.0000
  H   H9        1.0  0.09946798563255847  0.5388123324337543  0.5654733896632843  1.0000
  H   H10       1.0  0.40053194904703765  0.46119023925708325  0.06547345320532014  1.0000
  H   H11       1.0  0.5994672640104689  0.9611901391211234  0.434526501593061  1.0000
  H   H12       1.0  0.9005311419400658  0.03881227899954067  0.9345261706281189  1.0000
  H   H13       1.0  0.4118680813492553  0.5151582983956933  0.4486374003519405  1.0000
  H   H14       1.0  0.08813106609431383  0.48484402168803353  0.9486371693501774  1.0000
  H   H15       1.0  0.911867854437827  0.9848441107087599  0.5513629851305282  1.0000
  H   H16       1.0  0.5881381116353954  0.015157385776539505  0.051365352302650276  1.0000
  H   H17       1.0  0.34561425064710843  0.3655397610757586  0.33327002365116876  1.0000
  H   H18       1.0  0.15438519239778561  0.6344620149675424  0.833269981350039  1.0000
  H   H19       1.0  0.8456146903918512  0.13446218756014916  0.6667302075549841  1.0000
  H   H20       1.0  0.6543976757881628  0.8655378513954494  0.16673026416323383  1.0000
  C   C1        1.0  0.9270668355512368  0.7244875910129442  0.3895133921242075  1.0000
  C   C2        1.0  0.5729356203949265  0.2755150800694806  0.8895149690119544  1.0000
  C   C3        1.0  0.4270640198513016  0.775515546603562  0.6104849279095785  1.0000
  C   C4        1.0  0.07293363565011957  0.22448782865618902  0.11048663816856945  1.0000
  C   C5        1.0  0.13889592091913766  0.7475229656241251  0.3445558378438844  1.0000
  C   C6        1.0  0.3611069150217671  0.25247743828781527  0.844556827897642  1.0000
  C   C7        1.0  0.6388921952928909  0.7524778130396288  0.6554430774161487  1.0000
  C   C8        1.0  0.8611044504666538  0.24752271135997153  0.15544440671942575  1.0000
  C   C9        1.0  0.18677519482584315  0.6796572424059973  0.2712520092783414  1.0000
  C   C10       1.0  0.31322513229237975  0.32033859808544696  0.7712512502214256  1.0000
  C   C11       1.0  0.6867742552345575  0.820338498905966  0.7287490443906036  1.0000
  C   C12       1.0  0.8132254824319447  0.17965674741896218  0.22874798336054297  1.0000
  C   C13       1.0  0.026987797461428358  0.5915399681173792  0.24781110673910367  1.0000
  C   C14       1.0  0.47300656392084234  0.40845868426377596  0.7478126317390515  1.0000
  C   C15       1.0  0.5269932888905192  0.908458611917336  0.7521879012886262  1.0000
  C   C16       1.0  0.9730126692858413  0.09153955983362178  0.2521885999572423  1.0000
  C   C17       1.0  0.822785247902221  0.578103874824516  0.2986944209227609  1.0000
  C   C18       1.0  0.6772103655251919  0.4218977654371671  0.7986947281342603  1.0000
  C   C19       1.0  0.3227896884668898  0.9218976953972555  0.7013058557723907  1.0000
  C   C20       1.0  0.17721527602674644  0.07810395394980382  0.20130507017636018  1.0000
  C   C21       1.0  0.8523525274323669  0.3232523019960821  0.44415026261995644  1.0000
  C   C22       1.0  0.6476474136900753  0.6767495847868347  0.9441503284276295  1.0000
  C   C23       1.0  0.35235305202896344  0.17674975740508234  0.5558497628507068  1.0000
  C   C24       1.0  0.14765404366325519  0.8232532463311075  0.05584877902306519  1.0000
  C   C25       1.0  0.8738885065152819  0.4042185381823795  0.5114440911740827  1.0000
  C   C26       1.0  0.626111587828877  0.5957835475586518  0.011443996080647008  1.0000
  C   C27       1.0  0.3738884670037218  0.09578365302412226  0.48855598621689195  1.0000
  C   C28       1.0  0.12611556357877546  0.9042184383993129  0.9885548016265328  1.0000
  C   C29       1.0  0.07699729955094531  0.4749185325050387  0.5139488732580244  1.0000
  C   C30       1.0  0.42300256580472795  0.5250837079735684  0.013948857635270725  1.0000
  C   C31       1.0  0.5769970456462333  0.02508373473648606  0.4860511417082369  1.0000
  C   C32       1.0  0.9230084949456966  0.9749199335095502  0.9860508814334431  1.0000
  C   C33       1.0  0.25027254538666743  0.4619240048254022  0.449215035582399  1.0000
  C   C34       1.0  0.2497268142694493  0.5380782205264041  0.9492149414287168  1.0000
  C   C35       1.0  0.7502724695110635  0.038078327058520434  0.5507851291491292  1.0000
  C   C36       1.0  0.7497348524216071  0.9619248232594095  0.05078655549171487  1.0000
  C   C37       1.0  0.21253188347915222  0.37834733924537794  0.3845703883283217  1.0000
  C   C38       1.0  0.28746752613332344  0.6216545832762961  0.8845703659278034  1.0000
  C   C39       1.0  0.7125323237753989  0.1216547972264378  0.6154298197529121  1.0000
  C   C40       1.0  0.7874761735855491  0.8783469801063156  0.11542919174655163  1.0000
  N   N1        1.0  0.7738220332305071  0.642688522112785  0.36714560947550007  1.0000
  N   N2        1.0  0.7261786984719362  0.35731451023510424  0.8671460741211278  1.0000
  N   N3        1.0  0.2738210714521222  0.8573147445686717  0.6328542096904902  1.0000
  N   N4        1.0  0.2261785792090569  0.14268877548012174  0.13285415762949862  1.0000
  N   N5        1.0  0.01760794811235655  0.3096384678245882  0.38129323127716164  1.0000
  N   N6        1.0  0.4823912827807021  0.6903635136184263  0.8812931849281923  1.0000
  N   N7        1.0  0.5176088803662292  0.19036375957074506  0.6187069468468966  1.0000
  N   N8        1.0  0.9824033337569276  0.8096391155374709  0.11870668787167839  1.0000
  F   F1        1.0  0.8727630456669577  0.7897332409341473  0.4597932173455827  1.0000
  F   F2        1.0  0.6272422865719317  0.2102686932818519  0.9597949808937083  1.0000
  F   F3        1.0  0.3727574143578166  0.710269614823131  0.5402045057700673  1.0000
  F   F4        1.0  0.12723754964622633  0.28973401824985445  0.04020716200505571  1.0000
  F   F5        1.0  0.2913977065085843  0.8322737864617032  0.36880029792234564  1.0000
  F   F6        1.0  0.20860677947953302  0.16772349489896735  0.8687981810871679  1.0000
  F   F7        1.0  0.7913921280162982  0.667724045033405  0.6312012631726914  1.0000
  F   F8        1.0  0.7086025985687654  0.33227354581357565  0.13120047605577703  1.0000
  F   F9        1.0  0.38563163470985834  0.6980805041786146  0.2245344607823494  1.0000
  F   F10       1.0  0.11437632763523867  0.30189858227286576  0.7245336321500554  1.0000
  F   F11       1.0  0.885622267767712  0.8018981671966592  0.7754669243904253  1.0000
  F   F12       1.0  0.6143693286889568  0.19807973328830314  0.2754658461155495  1.0000
  F   F13       1.0  0.069863264382873  0.5243636740072641  0.17765279395264488  1.0000
  F   F14       1.0  0.4301396703358248  0.4756322809109508  0.6776542659900271  1.0000
  F   F15       1.0  0.569860694940994  0.9756318971613358  0.8223465292405315  1.0000
  F   F16       1.0  0.9301370289840912  0.024362922045865126  0.322346650540442  1.0000
  F   F17       1.0  0.6620442590253333  0.49514287433644877  0.27690910317759565  1.0000
  F   F18       1.0  0.8379539204970315  0.504857934994307  0.7769089511236207  1.0000
  F   F19       1.0  0.1620459296080768  0.00485747984904843  0.7230919096818182  1.0000
  F   F20       1.0  0.3379560704891825  0.995142941370933  0.22309002312868337  1.0000
