data_image0
_chemical_formula_structural       H32C24N4O8S4
_chemical_formula_sum              "H32 C24 N4 O8 S4"
_cell_length_a       9.988693966567288
_cell_length_b       5.589172826380051
_cell_length_c       13.515661671913037
_cell_angle_alpha    90.0
_cell_angle_beta     110.88401182306981
_cell_angle_gamma    90.0

_space_group_name_H-M_alt    "P 1"
_space_group_IT_number       1

loop_
  _space_group_symop_operation_xyz
  'x, y, z'

loop_
  _atom_site_type_symbol
  _atom_site_label
  _atom_site_symmetry_multiplicity
  _atom_site_fract_x
  _atom_site_fract_y
  _atom_site_fract_z
  _atom_site_occupancy
  H   H1        1.0  0.6827548569550255  0.8095881198453954  0.6192904367203167  1.0000
  H   H2        1.0  0.31724514290220873  0.3095881186269728  0.38070956395159805  1.0000
  H   H3        1.0  0.09601616577573575  0.7350661819954675  0.9249249082847834  1.0000
  H   H4        1.0  0.9039838340690526  0.23506618256621842  0.0750750916440201  1.0000
  H   H5        1.0  0.9860736557907519  0.19238293990927036  0.7395936675009341  1.0000
  H   H6        1.0  0.013926344054036522  0.6923829393385195  0.2604063324278693  1.0000
  H   H7        1.0  0.1796714413416372  0.41445217243358995  0.8927167815545143  1.0000
  H   H8        1.0  0.8203285585031513  0.9144521736520126  0.10728321837428921  1.0000
  H   H9        1.0  0.39369498318248053  0.15430388123434935  0.9449175505883718  1.0000
  H   H10       1.0  0.6063050166623078  0.6543038806635985  0.055082449340431675  1.0000
  H   H11       1.0  0.6084340214777242  0.27322398097842626  0.9049860245001955  1.0000
  H   H12       1.0  0.39156597836706414  0.7732239804076754  0.09501397542860801  1.0000
  H   H13       1.0  0.6066819404865395  0.6615221706061784  0.8112551058315257  1.0000
  H   H14       1.0  0.39331805935824904  0.16152217117692924  0.18874489409727768  1.0000
  H   H15       1.0  0.39400498746333595  0.9254464534692282  0.763074618103083  1.0000
  H   H16       1.0  0.6059950134529072  0.4254464522508055  0.23692538209940475  1.0000
  H   H17       1.0  0.8199251259709701  0.43510395823187564  0.8450312296922862  1.0000
  H   H18       1.0  0.1800748738738183  0.9351039576611246  0.15496877023651723  1.0000
  H   H19       1.0  0.7045671141957618  0.242139084268849  0.7480421086485475  1.0000
  H   H20       1.0  0.29543288672048124  0.742139083698098  0.25195789155394016  1.0000
  H   H21       1.0  0.9038349742526605  0.2311603935204825  0.5220326449095921  1.0000
  H   H22       1.0  0.09616502666358255  0.7311603929497317  0.4779673552928956  1.0000
  H   H23       1.0  0.884075036469105  0.050001958909008104  0.4075073858905413  1.0000
  H   H24       1.0  0.1159249633756834  0.5500019601274307  0.5924926140382621  1.0000
  H   H25       1.0  0.912861244828945  0.9102772803851832  0.5349694730651837  1.0000
  H   H26       1.0  0.08713875501584345  0.4102772809559341  0.4650305268636198  1.0000
  H   H27       1.0  0.7202160425580504  0.6369961442587728  0.45345322062174326  1.0000
  H   H28       1.0  0.27978395728673805  0.13699614482952374  0.5465467793070603  1.0000
  H   H29       1.0  0.648257002370296  0.7610145368782296  0.3216735147459143  1.0000
  H   H30       1.0  0.3517429974744924  0.26101453565980703  0.6783264851828892  1.0000
  H   H31       1.0  0.5320586467884356  0.7095889361805039  0.39635646483418  1.0000
  H   H32       1.0  0.467941353056353  0.2095889367512547  0.6036435350946235  1.0000
  C   C1        1.0  0.27481640791496326  0.47259774962277906  0.8779169661571918  1.0000
  C   C2        1.0  0.7251835919298252  0.9725977508412018  0.12208303377161167  1.0000
  C   C3        1.0  0.3943651467869731  0.3236477142846893  0.9055324834143683  1.0000
  C   C4        1.0  0.60563485412927  0.8236477137139384  0.09446751678811946  1.0000
  C   C5        1.0  0.515081362179909  0.3911721998791767  0.8830018699240514  1.0000
  C   C6        1.0  0.48491863766487947  0.8911722010975993  0.11699813000475215  1.0000
  C   C7        1.0  0.5147261410959277  0.6075199310305084  0.8309753216502356  1.0000
  C   C8        1.0  0.4852738598203154  0.10751993160125926  0.16902467855225212  1.0000
  C   C9        1.0  0.39548242645871273  0.7565144326980033  0.8032565124943212  1.0000
  C   C10       1.0  0.6045175733860757  0.2565144332687542  0.19674348743448233  1.0000
  C   C11       1.0  0.2754626419786001  0.6923284822641983  0.8282057022112098  1.0000
  C   C12       1.0  0.7245373578661883  0.1923284828349492  0.17179429771759366  1.0000
  C   C13       1.0  0.15422455477140454  0.8647149372781561  0.8006021061099473  1.0000
  C   C14       1.0  0.8457754450733839  0.3647149360597335  0.19939789381885606  1.0000
  C   C15       1.0  0.9532510584726983  0.9984761740878986  0.8557022628899555  1.0000
  C   C16       1.0  0.04674894137209024  0.4984761746586495  0.14429773703884796  1.0000
  C   C17       1.0  0.8066660224822662  0.33938660315654656  0.7706768756035393  1.0000
  C   C18       1.0  0.1933339773625224  0.8393866025857957  0.22932312432526428  1.0000
  C   C19       1.0  0.7984293276601738  0.5231592618140258  0.6863733891753664  1.0000
  C   C20       1.0  0.2015706732560693  0.023159262384776773  0.3136266110271213  1.0000
  C   C21       1.0  0.8645651123178534  0.06073589787701392  0.4823361839621839  1.0000
  C   C22       1.0  0.1354348875269352  0.5607358973062629  0.5176638159666196  1.0000
  C   C23       1.0  0.640342670838994  0.7581211838719184  0.400509060884337  1.0000
  C   C24       1.0  0.3596573300772492  0.25812118444266924  0.5994909393181507  1.0000
  N   N1        1.0  0.0709369517433527  0.8555109885726877  0.8634875880208248  1.0000
  N   N2        1.0  0.9290630481014358  0.35551098735426506  0.1365124119079786  1.0000
  N   N3        1.0  0.9239620612818232  0.17719721697019788  0.7860603849602753  1.0000
  N   N4        1.0  0.07603793856296527  0.677197216399447  0.2139396149685282  1.0000
  O   O1        1.0  0.13266355657000936  0.012854145368507302  0.727944842554211  1.0000
  O   O2        1.0  0.8673364432747792  0.51285414658693  0.2720551573745924  1.0000
  O   O3        1.0  0.8886171725822668  0.541243427958064  0.6437805211519271  1.0000
  O   O4        1.0  0.11138282726252162  0.0412434285288149  0.3562194787768764  1.0000
  O   O5        1.0  0.68450201420073  0.6606279756769374  0.6673669430162108  1.0000
  O   O6        1.0  0.31549798564405857  0.16062797445851484  0.33263305691259265  1.0000
  O   O7        1.0  0.6583208235471408  0.03913598788135351  0.5629504258254564  1.0000
  O   O8        1.0  0.3416791762976476  0.5391359890997761  0.4370495741033471  1.0000
  S   S1        1.0  0.8565754644415638  0.9370365334349527  0.9320428863510396  1.0000
  S   S2        1.0  0.14342453647467931  0.43703653221653016  0.06795711385144819  1.0000
  S   S3        1.0  0.6748897367993927  0.05513336401865747  0.4545494809215875  1.0000
  S   S4        1.0  0.32511026304539575  0.5551333634479065  0.545450519007216  1.0000
