data_image0
_chemical_formula_structural       H32C88N24F32Br8
_chemical_formula_sum              "H32 C88 N24 F32 Br8"
_cell_length_a       36.75807338683917
_cell_length_b       5.208591445101747
_cell_length_c       11.257846668103996
_cell_angle_alpha    90.0
_cell_angle_beta     90.64543647514347
_cell_angle_gamma    90.0

_space_group_name_H-M_alt    "P 1"
_space_group_IT_number       1

loop_
  _space_group_symop_operation_xyz
  'x, y, z'

loop_
  _atom_site_type_symbol
  _atom_site_label
  _atom_site_symmetry_multiplicity
  _atom_site_fract_x
  _atom_site_fract_y
  _atom_site_fract_z
  _atom_site_occupancy
  H   H1        1.0  0.3494962126108344  0.5844449122349112  0.9392868424874543  1.0000
  H   H2        1.0  0.6505037873253708  0.5844449122349112  0.5607131568008448  1.0000
  H   H3        1.0  0.8494962127106994  0.08444491080474982  0.939286842433637  1.0000
  H   H4        1.0  0.15050378722550567  0.08444491080474982  0.560713156854662  1.0000
  H   H5        1.0  0.6505037874132125  0.41555508870550667  0.060713157002200216  1.0000
  H   H6        1.0  0.3494962126986761  0.41555508870550667  0.43928684268880974  1.0000
  H   H7        1.0  0.15050378731334735  0.9155550882157634  0.06071315705601749  1.0000
  H   H8        1.0  0.8494962127985413  0.9155550882157634  0.43928684263499257  1.0000
  H   H9        1.0  0.31218543153252765  0.9459909635711019  0.8555521734286936  1.0000
  H   H10       1.0  0.6878145686785976  0.9459909635711019  0.6444478267485707  1.0000
  H   H11       1.0  0.8121854313603415  0.4459909640608454  0.8555521733742366  1.0000
  H   H12       1.0  0.18781456857873247  0.4459909640608454  0.644447826802388  1.0000
  H   H13       1.0  0.6878145684915192  0.054009035449411165  0.1444478260609609  1.0000
  H   H14       1.0  0.31218543134831805  0.054009035449411165  0.3555521736294093  1.0000
  H   H15       1.0  0.18781456866370536  0.5540090368795726  0.144447826115418  1.0000
  H   H16       1.0  0.8121854314481832  0.5540090368795726  0.355552173575592  1.0000
  H   H17       1.0  0.25876408114113836  0.9940474530535689  0.19472971964303712  1.0000
  H   H18       1.0  0.7412359189736191  0.9940474530535689  0.3052702809362984  1.0000
  H   H19       1.0  0.7587640809689523  0.4940474535433124  0.19472971958858  1.0000
  H   H20       1.0  0.24123591887375395  0.4940474535433124  0.3052702809901156  1.0000
  H   H21       1.0  0.7412359188857774  0.005952547886848965  0.805270280734943  1.0000
  H   H22       1.0  0.2587640810532966  0.005952547886848965  0.6947297194416816  1.0000
  H   H23       1.0  0.2412359190579635  0.5059525473971056  0.8052702807894  1.0000
  H   H24       1.0  0.7587640811531617  0.5059525473971056  0.6947297193878644  1.0000
  H   H25       1.0  0.2979681122907101  0.630441973537407  0.2634957343833917  1.0000
  H   H26       1.0  0.7020318875519961  0.630441973537407  0.23650426619530393  1.0000
  H   H27       1.0  0.7979681123905752  0.1304419740271504  0.26349573432957446  1.0000
  H   H28       1.0  0.20203188772418218  0.1304419740271504  0.23650426624976104  1.0000
  H   H29       1.0  0.7020318877362056  0.36955802740301097  0.7365042659945884  1.0000
  H   H30       1.0  0.2979681122028684  0.36955802740301097  0.7634957341820362  1.0000
  H   H31       1.0  0.2020318876363405  0.8695580269132674  0.7365042660484055  1.0000
  H   H32       1.0  0.7979681123027335  0.8695580269132674  0.7634957341282189  1.0000
  C   C1        1.0  0.4045155013560533  0.7807233592537153  0.2888392406012279  1.0000
  C   C2        1.0  0.5954844987587041  0.7807233592537153  0.21116075997810757  1.0000
  C   C3        1.0  0.9045155014559184  0.28072335974345886  0.2888392405474106  1.0000
  C   C4        1.0  0.09548449865597015  0.28072335974345886  0.21116075914359939  1.0000
  C   C5        1.0  0.5954844986708624  0.21927663976679768  0.7111607597767521  1.0000
  C   C6        1.0  0.4045155012682116  0.21927663976679768  0.7888392403998725  1.0000
  C   C7        1.0  0.09548449857099728  0.7192766392770542  0.7111607598305694  1.0000
  C   C8        1.0  0.9045155013680767  0.7192766392770542  0.7888392403460552  1.0000
  C   C9        1.0  0.40773116453646874  0.9485533204272057  0.19309777328302824  1.0000
  C   C10       1.0  0.5922688355754198  0.9485533204272057  0.30690222640798176  1.0000
  C   C11       1.0  0.9077311643642826  0.44855332091694916  0.19309777322857113  1.0000
  C   C12       1.0  0.09226883547555471  0.44855332091694916  0.306902226461799  1.0000
  C   C13       1.0  0.5922688354875781  0.05144668051321223  0.8069022262066263  1.0000
  C   C14       1.0  0.40773116444862706  0.05144668051321223  0.6930977730816729  1.0000
  C   C15       1.0  0.09226883565976424  0.5514466800234687  0.8069022262610833  1.0000
  C   C16       1.0  0.9077311645484922  0.5514466800234687  0.6930977730278555  1.0000
  C   C17       1.0  0.43815952311254325  0.9250661509516566  0.1212181575590182  1.0000
  C   C18       1.0  0.5618404767301629  0.9250661509516566  0.37878184301967743  1.0000
  C   C19       1.0  0.9381595232124085  0.42506615144140003  0.12121815750520092  1.0000
  C   C20       1.0  0.06184047689948016  0.42506615144140003  0.37878184218580907  1.0000
  C   C21       1.0  0.5618404769143724  0.07493384806885649  0.8787818428189618  1.0000
  C   C22       1.0  0.4381595232967529  0.07493384806885649  0.6212181573583027  1.0000
  C   C23       1.0  0.0618404768145073  0.574933847579113  0.878781842872779  1.0000
  C   C24       1.0  0.9381595231245669  0.574933847579113  0.6212181573038454  1.0000
  C   C25       1.0  0.46476119567667173  0.7416891343307376  0.14464292109878152  1.0000
  C   C26       1.0  0.5352388041631656  0.7416891343307376  0.35535707859158866  1.0000
  C   C27       1.0  0.9647611957765367  0.24168913482048096  0.1446429210449642  1.0000
  C   C28       1.0  0.035238804335351676  0.24168913482048096  0.3553570786460458  1.0000
  C   C29       1.0  0.5352388040753239  0.25831086468977554  0.8553570783902332  1.0000
  C   C30       1.0  0.46476119586088127  0.25831086468977554  0.6446429208980659  1.0000
  C   C31       1.0  0.03523880424750999  0.7583108642000321  0.8553570784446902  1.0000
  C   C32       1.0  0.964761195691564  0.7583108642000321  0.6446429217319343  1.0000
  C   C33       1.0  0.4614396005087172  0.5696083751759962  0.2400431776860367  1.0000
  C   C34       1.0  0.5385603996060402  0.5696083751759962  0.25995682289329874  1.0000
  C   C35       1.0  0.9614396003365311  0.06960837374583476  0.24004317763157965  1.0000
  C   C36       1.0  0.03856039950617504  0.06960837374583476  0.25995682294711603  1.0000
  C   C37       1.0  0.5385603995181985  0.4303916257644218  0.7599568226919432  1.0000
  C   C38       1.0  0.4614396004208755  0.4303916257644218  0.7400431774846813  1.0000
  C   C39       1.0  0.03856039969038458  0.9303916252746783  0.7599568227464003  1.0000
  C   C40       1.0  0.9614396005207406  0.9303916252746783  0.740043177430864  1.0000
  C   C41       1.0  0.4304100211643543  0.5927534483249701  0.31071427956073056  1.0000
  C   C42       1.0  0.569589978675483  0.5927534483249701  0.18928572012963965  1.0000
  C   C43       1.0  0.9304100212642196  0.09275344689480874  0.31071427950691327  1.0000
  C   C44       1.0  0.06958997884766915  0.09275344689480874  0.1892857201840967  1.0000
  C   C45       1.0  0.5695899788625614  0.40724655261544784  0.6892857208172495  1.0000
  C   C46       1.0  0.4304100210765126  0.40724655261544784  0.810714279359375  1.0000
  C   C47       1.0  0.06958997876269629  0.9072465521257044  0.6892857208710668  1.0000
  C   C48       1.0  0.9304100211763776  0.9072465521257044  0.8107142793055578  1.0000
  C   C49       1.0  0.3287425480909883  0.678122624365483  0.992575455330699  1.0000
  C   C50       1.0  0.6712574518480857  0.678122624365483  0.5074245448459256  1.0000
  C   C51       1.0  0.8287425481908534  0.17812262293532152  0.9925754552768817  1.0000
  C   C52       1.0  0.17125745174822057  0.17812262293532152  0.5074245448997429  1.0000
  C   C53       1.0  0.6712574516638761  0.321877376574935  0.007424545046641225  1.0000
  C   C54       1.0  0.32874254817883  0.321877376574935  0.4925754555320545  1.0000
  C   C55       1.0  0.17125745183606225  0.8218773760851915  0.007424545101098312  1.0000
  C   C56       1.0  0.8287425482786951  0.8218773760851915  0.4925754554782371  1.0000
  C   C57       1.0  0.3079943064414479  0.8796156366436803  0.9460080132962352  1.0000
  C   C58       1.0  0.6920056934976262  0.8796156366436803  0.5539919868803894  1.0000
  C   C59       1.0  0.807994306541313  0.3796156371334237  0.946008013242418  1.0000
  C   C60       1.0  0.192005693397761  0.3796156371334237  0.5539919869342066  1.0000
  C   C61       1.0  0.6920056935854678  0.12038436237683281  0.05399198708174479  1.0000
  C   C62       1.0  0.3079943065292896  0.12038436237683281  0.44600801349759067  1.0000
  C   C63       1.0  0.19200569348560267  0.6203843618870893  0.05399198713556207  1.0000
  C   C64       1.0  0.8079943066291547  0.6203843618870893  0.44600801344377344  1.0000
  C   C65       1.0  0.28210299332307753  0.996870339078509  0.018381443806523463  1.0000
  C   C66       1.0  0.7178970065167599  0.996870339078509  0.48161855588384667  1.0000
  C   C67       1.0  0.7821029934229426  0.4968703395682525  0.01838144375270619  1.0000
  C   C68       1.0  0.21789700668894593  0.4968703395682525  0.4816185559383038  1.0000
  C   C69       1.0  0.7178970067038382  0.003129659942004064  0.9816185565714566  1.0000
  C   C70       1.0  0.28210299350728707  0.003129659942004064  0.5183814436058078  1.0000
  C   C71       1.0  0.21789700660397307  0.5031296613721655  0.9816185566252738  1.0000
  C   C72       1.0  0.7821029933351009  0.5031296613721655  0.5183814435513507  1.0000
  C   C73       1.0  0.27832464777312005  0.9070695810559409  0.1352494216220418  1.0000
  C   C74       1.0  0.7216753523387684  0.9070695810559409  0.36475057806896827  1.0000
  C   C75       1.0  0.7783246476009338  0.4070695815456844  0.13524942156758468  1.0000
  C   C76       1.0  0.22167535223890344  0.4070695815456844  0.36475057812278544  1.0000
  C   C77       1.0  0.7216753522509269  0.0929304179645721  0.8647505778676127  1.0000
  C   C78       1.0  0.2783246476852783  0.0929304179645721  0.6352494214206863  1.0000
  C   C79       1.0  0.22167535242311298  0.5929304193947336  0.8647505779220699  1.0000
  C   C80       1.0  0.7783246477880122  0.5929304193947336  0.6352494222551945  1.0000
  C   C81       1.0  0.3001356436190411  0.703899750756585  0.17286072735219254  1.0000
  C   C82       1.0  0.6998643564928474  0.703899750756585  0.32713927233881746  1.0000
  C   C83       1.0  0.8001356437189062  0.20389974932642346  0.17286072729837526  1.0000
  C   C84       1.0  0.19986435639298233  0.20389974932642346  0.32713927239263474  1.0000
  C   C85       1.0  0.6998643564050058  0.29610025018383307  0.8271392721374621  1.0000
  C   C86       1.0  0.3001356435311995  0.29610025018383307  0.672860727150837  1.0000
  C   C87       1.0  0.19986435630514063  0.7961002496940895  0.8271392721912791  1.0000
  C   C88       1.0  0.8001356436339334  0.7961002496940895  0.6728607279853452  1.0000
  N   N1        1.0  0.4829617662172086  0.3455019766797713  0.2523426846884829  1.0000
  N   N2        1.0  0.51703823389468  0.3455019766797713  0.24765731500252708  1.0000
  N   N3        1.0  0.9829617660450226  0.8455019781099326  0.2523426846340258  1.0000
  N   N4        1.0  0.01703823379481486  0.8455019781099326  0.2476573150563443  1.0000
  N   N5        1.0  0.5170382338097071  0.6544980223407418  0.7476573156894971  1.0000
  N   N6        1.0  0.48296176612936687  0.6544980223407418  0.7523426844871274  1.0000
  N   N7        1.0  0.01703823398189321  0.15449802283048528  0.747657315743954  1.0000
  N   N8        1.0  0.982961766229232  0.15449802283048528  0.7523426844333103  1.0000
  N   N9        1.0  0.32485997638274894  0.5893564953893278  0.1034625168853836  1.0000
  N   N10       1.0  0.6751400234599573  0.5893564953893278  0.39653748369331204  1.0000
  N   N11       1.0  0.8248599764826141  0.0893564939591664  0.10346251683156633  1.0000
  N   N12       1.0  0.1751400236321433  0.0893564939591664  0.3965374837477692  1.0000
  N   N13       1.0  0.6751400236441667  0.4106435055510902  0.8965374834925964  1.0000
  N   N14       1.0  0.3248599762949073  0.4106435055510902  0.6034625166840282  1.0000
  N   N15       1.0  0.1751400235443016  0.9106435050613467  0.8965374835464137  1.0000
  N   N16       1.0  0.8248599763947724  0.9106435050613467  0.6034625166302109  1.0000
  N   N17       1.0  0.2614481232607697  0.1985509884774228  0.9658339562688611  1.0000
  N   N18       1.0  0.7385518769503555  0.1985509884774228  0.5341660439084033  1.0000
  N   N19       1.0  0.7614481230885837  0.6985509879876793  0.9658339562144039  1.0000
  N   N20       1.0  0.2385518768476216  0.6985509879876793  0.5341660430738951  1.0000
  N   N21       1.0  0.738551876763277  0.8014490124629952  0.034166043220793474  1.0000
  N   N22       1.0  0.2614481230765602  0.8014490124629952  0.4658339564695767  1.0000
  N   N23       1.0  0.23855187693546326  0.3014490110328337  0.034166043275250566  1.0000
  N   N24       1.0  0.7614481231764252  0.3014490110328337  0.4658339564157595  1.0000
  F   F1        1.0  0.37533357435691495  0.7971694504672155  0.3608233260782582  1.0000
  F   F2        1.0  0.6246664257549736  0.7971694504672155  0.13917667361275185  1.0000
  F   F3        1.0  0.8753335741875976  0.297169450956959  0.3608233269121265  1.0000
  F   F4        1.0  0.12466642565510852  0.297169450956959  0.1391766736665691  1.0000
  F   F5        1.0  0.6246664256671319  0.20283055047320236  0.6391766734113964  1.0000
  F   F6        1.0  0.3753335742719421  0.20283055047320236  0.8608233267652281  1.0000
  F   F7        1.0  0.12466642556726684  0.702830549983459  0.6391766734652136  1.0000
  F   F8        1.0  0.8753335743718073  0.702830549983459  0.8608233267114109  1.0000
  F   F9        1.0  0.44255483011085356  0.083848870582989  0.028016118171306326  1.0000
  F   F10       1.0  0.5574451700039038  0.083848870582989  0.4719838824080292  1.0000
  F   F11       1.0  0.9425548299386673  0.5838488700932456  0.028016118116849238  1.0000
  F   F12       1.0  0.0574451699040387  0.5838488700932456  0.47198388246184636  1.0000
  F   F13       1.0  0.5574451699160621  0.916151130357429  0.9719838822066738  1.0000
  F   F14       1.0  0.44255483002301194  0.916151130357429  0.5280161179699508  1.0000
  F   F15       1.0  0.05744517008824824  0.4161511308471724  0.9719838822611307  1.0000
  F   F16       1.0  0.942554830122877  0.4161511308471724  0.5280161179161336  1.0000
  F   F17       1.0  0.49306548262287325  0.7226123933255579  0.07019163204544034  1.0000
  F   F18       1.0  0.5069345172169641  0.7226123933255579  0.4298083676449298  1.0000
  F   F19       1.0  0.9930654827227383  0.2226123938153014  0.07019163199162305  1.0000
  F   F20       1.0  0.006934517389150195  0.2226123938153014  0.42980836769938696  1.0000
  F   F21       1.0  0.5069345174011736  0.27738760761486003  0.9298083674442141  1.0000
  F   F22       1.0  0.4930654828070828  0.27738760761486003  0.5701916318447247  1.0000
  F   F23       1.0  0.006934517301308512  0.7773876071251166  0.9298083674980315  1.0000
  F   F24       1.0  0.9930654826377654  0.7773876071251166  0.5701916326785931  1.0000
  F   F25       1.0  0.42563126898819625  0.4279283532779483  0.40182420739621694  1.0000
  F   F26       1.0  0.5743687311265611  0.4279283532779483  0.09817579318311855  1.0000
  F   F27       1.0  0.9256312688160102  0.9279283527882048  0.4018242073417598  1.0000
  F   F28       1.0  0.07436873102669599  0.9279283527882048  0.09817579323693583  1.0000
  F   F29       1.0  0.5743687310387194  0.5720716476624695  0.598175792981763  1.0000
  F   F30       1.0  0.4256312689003546  0.5720716476624695  0.9018242071948614  1.0000
  F   F31       1.0  0.07436873121090552  0.07207164815221305  0.5981757930362201  1.0000
  F   F32       1.0  0.9256312690002199  0.07207164815221305  0.9018242071410444  1.0000
  Br  Br1       1.0  0.37225460436781194  0.20352958591078196  0.1622689734527893  1.0000
  Br  Br2       1.0  0.6277453957469454  0.20352958591078196  0.3377310271265462  1.0000
  Br  Br3       1.0  0.872254604195626  0.7035295854210385  0.16226897339833224  1.0000
  Br  Br4       1.0  0.12774539564708035  0.7035295854210385  0.3377310271803634  1.0000
  Br  Br5       1.0  0.6277453956591037  0.7964704150296359  0.8377310269251907  1.0000
  Br  Br6       1.0  0.37225460427997026  0.7964704150296359  0.6622689732514339  1.0000
  Br  Br7       1.0  0.12774539583128988  0.29647041551937947  0.8377310269796477  1.0000
  Br  Br8       1.0  0.8722546043798354  0.29647041551937947  0.6622689731976166  1.0000
