data_image0
_chemical_formula_structural       H10C24N4F8Br2
_chemical_formula_sum              "H10 C24 N4 F8 Br2"
_cell_length_a       6.077519811823711
_cell_length_b       8.277813042808315
_cell_length_c       12.025596366284846
_cell_angle_alpha    70.46620024939355
_cell_angle_beta     84.91057786832258
_cell_angle_gamma    79.51744294492913

_space_group_name_H-M_alt    "P 1"
_space_group_IT_number       1

loop_
  _space_group_symop_operation_xyz
  'x, y, z'

loop_
  _atom_site_type_symbol
  _atom_site_label
  _atom_site_symmetry_multiplicity
  _atom_site_fract_x
  _atom_site_fract_y
  _atom_site_fract_z
  _atom_site_occupancy
  H   H1        1.0  0.246237253005802  0.1251807477302881  0.7059985516103955  1.0000
  H   H2        1.0  0.7537627473149792  0.8748192522483926  0.29400144835430786  1.0000
  H   H3        1.0  0.7900407233380254  0.8878512816144694  0.9561096161280715  1.0000
  H   H4        1.0  0.20995927698275568  0.11214871836421124  0.04389038383663201  1.0000
  H   H5        1.0  0.6761673628820211  0.5913286791897837  0.9132513150303543  1.0000
  H   H6        1.0  0.3238326357923569  0.408671320795211  0.08674868493123532  1.0000
  H   H7        1.0  0.5500132659257403  0.8737940798730435  0.7791731094150753  1.0000
  H   H8        1.0  0.4499867343399452  0.1262059196791756  0.22082689143235976  1.0000
  H   H9        1.0  0.06970041808473328  0.6260754811146289  0.039400849092413495  1.0000
  H   H10       1.0  0.9302995822360481  0.3739245188640516  0.9605991508722899  1.0000
  C   C1        1.0  0.46325654414486483  0.3626034324670258  0.4268650167570007  1.0000
  C   C2        1.0  0.5367434545295132  0.6373965675179691  0.5731349832045887  1.0000
  C   C3        1.0  0.8856147509250829  0.34146684204462463  0.3218354418107241  1.0000
  C   C4        1.0  0.11438524939569834  0.6585331579340556  0.6781645581539794  1.0000
  C   C5        1.0  0.5099017776602186  0.499769802467554  0.32724894401956206  1.0000
  C   C6        1.0  0.4900982226605626  0.5002301975111264  0.6727510559451414  1.0000
  C   C7        1.0  0.6228397529414369  0.21618555657437316  0.47301133786402405  1.0000
  C   C8        1.0  0.3771602473793441  0.7838144434043074  0.5269886621006794  1.0000
  C   C9        1.0  0.8413974557554212  0.20085262305083673  0.4218909153276675  1.0000
  C   C10       1.0  0.15860254456535994  0.799147376927844  0.5781090846370358  1.0000
  C   C11       1.0  0.7247826978569869  0.48628474745742584  0.2761267689479096  1.0000
  C   C12       1.0  0.2752173024637943  0.5137152525212546  0.7238732310167939  1.0000
  C   C13       1.0  0.3370693520085549  0.7249036359647836  0.9158988775757534  1.0000
  C   C14       1.0  0.6629306483122261  0.2750963640138971  0.08410112238895005  1.0000
  C   C15       1.0  0.2140543642170933  0.01202341228313476  0.78016810239806  1.0000
  C   C16       1.0  0.7859456361036881  0.9879765876955459  0.2198318975666435  1.0000
  C   C17       1.0  0.9601840878088298  0.8794071048129195  0.9182764755315909  1.0000
  C   C18       1.0  0.039815912511951476  0.12059289516576084  0.08172352443311266  1.0000
  C   C19       1.0  0.5127922287397588  0.5756065792300669  0.9573744091240864  1.0000
  C   C20       1.0  0.4872077715810225  0.42439342074861336  0.04262559084061709  1.0000
  C   C21       1.0  0.3837099058482638  0.8709356852518298  0.8214273243123492  1.0000
  C   C22       1.0  0.6162900944725175  0.1290643147268507  0.17857267565235418  1.0000
  C   C23       1.0  0.11764812864336305  0.732312025435835  0.9648063580603279  1.0000
  C   C24       1.0  0.8823518716774182  0.26768797454284593  0.03519364190437552  1.0000
  N   N1        1.0  0.021570264260276823  0.06670678797763134  0.4576794825227151  1.0000
  N   N2        1.0  0.9784297360605045  0.9332932120010492  0.5423205174419883  1.0000
  N   N3        1.0  0.0051871047344537475  0.017430457013437012  0.82697241561249  1.0000
  N   N4        1.0  0.9948128955863274  0.9825695429652436  0.17302758435221352  1.0000
  F   F1        1.0  0.7783664243102609  0.61574362578451  0.17960827983588756  1.0000
  F   F2        1.0  0.22163357601052008  0.3842563741941705  0.8203917201288159  1.0000
  F   F3        1.0  0.2592010117497273  0.37157923858630837  0.48179300772857414  1.0000
  F   F4        1.0  0.7407989885710539  0.6284207613923724  0.5182069922361292  1.0000
  F   F5        1.0  0.5629039735959184  0.09097181114517855  0.5693352473979623  1.0000
  F   F6        1.0  0.4370960267248629  0.9090281888335021  0.4306647525667412  1.0000
  F   F7        1.0  0.08898991791874886  0.33462972468861435  0.2668717074220294  1.0000
  F   F8        1.0  0.9110100824020322  0.6653702752900661  0.733128292542674  1.0000
  Br  Br1       1.0  0.29252699077162886  0.6997713174930715  0.2626395595377492  1.0000
  Br  Br2       1.0  0.7074730095491524  0.30022868248560897  0.7373604404269541  1.0000
