data_image0
_chemical_formula_structural       H112C96N4O8F32Br4I8
_chemical_formula_sum              "H112 C96 N4 O8 F32 Br4 I8"
_cell_length_a       12.941322842950203
_cell_length_b       15.916857292175436
_cell_length_c       14.220244177891997
_cell_angle_alpha    90.0
_cell_angle_beta     103.06014705091803
_cell_angle_gamma    90.0

_space_group_name_H-M_alt    "P 1"
_space_group_IT_number       1

loop_
  _space_group_symop_operation_xyz
  'x, y, z'

loop_
  _atom_site_type_symbol
  _atom_site_label
  _atom_site_symmetry_multiplicity
  _atom_site_fract_x
  _atom_site_fract_y
  _atom_site_fract_z
  _atom_site_occupancy
  H   H1        1.0  0.20314309403415873  0.20524868886058192  0.790269591568305  1.0000
  H   H2        1.0  0.7968569061219307  0.7052486884781121  0.20973040819485742  1.0000
  H   H3        1.0  0.21601181644272036  0.16001928227704101  0.6259385837658569  1.0000
  H   H4        1.0  0.7839881837133692  0.660019282522836  0.3740614159973055  1.0000
  H   H5        1.0  0.3485577210823537  0.19727973508587202  0.6457478834556599  1.0000
  H   H6        1.0  0.6514422792494025  0.6972797353316669  0.3542521170293906  1.0000
  H   H7        1.0  0.24322562524810304  0.270003662224996  0.6409449557129158  1.0000
  H   H8        1.0  0.7567743749079864  0.7700036624707909  0.3590550440502465  1.0000
  H   H9        1.0  0.3473366681045437  0.2589762749224608  0.9081887561424407  1.0000
  H   H10       1.0  0.6526633322272124  0.7589762751682557  0.09181124434260961  1.0000
  H   H11       1.0  0.5194768684750588  0.3021368717280697  0.8758685066505986  1.0000
  H   H12       1.0  0.4805231316810307  0.8021368719738646  0.12413149311256384  1.0000
  H   H13       1.0  0.4802084746715518  0.2661760152918322  0.7546177350752615  1.0000
  H   H14       1.0  0.5197915254845377  0.7661760155376272  0.24538226468790084  1.0000
  H   H15       1.0  0.5002839673142324  0.19234863539959263  0.8514220388372364  1.0000
  H   H16       1.0  0.4997160330175239  0.6923486356453875  0.14857796164781392  1.0000
  H   H17       1.0  0.24133942313982162  0.751863415643175  0.6705681310011431  1.0000
  H   H18       1.0  0.7586605762427268  0.2518634160256448  0.32943186875867286  1.0000
  H   H19       1.0  0.07388293488841095  0.7954528269989625  0.713620550828233  1.0000
  H   H20       1.0  0.9261170654433454  0.29545282738143225  0.2863794496568174  1.0000
  H   H21       1.0  0.11986091054184599  0.7584669742521769  0.8339883869894698  1.0000
  H   H22       1.0  0.8801390896142436  0.258466974006382  0.16601161277369272  1.0000
  H   H23       1.0  0.0954829073300659  0.6855360068701515  0.7363614205709028  1.0000
  H   H24       1.0  0.9045170920524823  0.1855360066243566  0.26363857918891304  1.0000
  H   H25       1.0  0.3914492438296615  0.6999855791555714  0.7809045391523605  1.0000
  H   H26       1.0  0.6085507563264281  0.1999855789097764  0.21909546061080182  1.0000
  H   H27       1.0  0.39438955649897534  0.6559802515244488  0.9490379569938197  1.0000
  H   H28       1.0  0.6056104436571141  0.15598025127865395  0.05096204276934258  1.0000
  H   H29       1.0  0.26186950708492285  0.6917388764560046  0.9382034461208275  1.0000
  H   H30       1.0  0.7381304930711665  0.19173887683847446  0.06179655364233481  1.0000
  H   H31       1.0  0.36463334348861837  0.7655104840319067  0.9352580483916424  1.0000
  H   H32       1.0  0.63536665589393  0.26551048378611175  0.06474195136817357  1.0000
  H   H33       1.0  0.30929576388278607  0.1685573094456836  0.35499699417669645  1.0000
  H   H34       1.0  0.6907042362733035  0.6685573096914785  0.645003005586466  1.0000
  H   H35       1.0  0.3128967455023466  0.2786008091044411  0.35714727915047917  1.0000
  H   H36       1.0  0.687103254653743  0.7786008093502361  0.6428527206126833  1.0000
  H   H37       1.0  0.19381968275198797  0.22266130900992798  0.4543260347379346  1.0000
  H   H38       1.0  0.8061803174041016  0.7226613092557228  0.5456739650252278  1.0000
  H   H39       1.0  0.11164765452213855  0.1724768796758363  0.35360013925923567  1.0000
  H   H40       1.0  0.8883523448604097  0.6724768792933665  0.6463998605005803  1.0000
  H   H41       1.0  0.11881587230354117  0.28453265533933914  0.3597924766354961  1.0000
  H   H42       1.0  0.8811841280282151  0.7845326555851341  0.6402075238495544  1.0000
  H   H43       1.0  0.09681766140974891  0.29440023768407814  0.20142051301625946  1.0000
  H   H44       1.0  0.9031823387463405  0.794400237929873  0.7985794867469028  1.0000
  H   H45       1.0  0.15761837861058547  0.29530779435401827  0.10269598643309402  1.0000
  H   H46       1.0  0.8423816215455041  0.7953077945998132  0.8973040133300684  1.0000
  H   H47       1.0  0.16775169972929763  0.4348264524179863  0.1790837933197907  1.0000
  H   H48       1.0  0.8322483006024586  0.9348264526637812  0.8209162071652597  1.0000
  H   H49       1.0  0.298119372576855  0.39633031723549544  0.1928548116279165  1.0000
  H   H50       1.0  0.7018806277549012  0.8963303174812904  0.8071451888571339  1.0000
  H   H51       1.0  0.23609262024206104  0.3952731550274589  0.29247910541525396  1.0000
  H   H52       1.0  0.7639073791404872  0.8952731546449891  0.7075208943445619  1.0000
  H   H53       1.0  0.158346702731087  0.16040605900607702  0.10038854846004426  1.0000
  H   H54       1.0  0.8416532966514613  0.660406059251872  0.8996114512997716  1.0000
  H   H55       1.0  0.10078482163117412  0.15292630733056717  0.2010058901879313  1.0000
  H   H56       1.0  0.8992151777513742  0.652926307576362  0.7989941095718845  1.0000
  H   H57       1.0  0.17652605084477982  0.017316873233229085  0.16910408889133532  1.0000
  H   H58       1.0  0.8234739494869765  0.517316873479024  0.8308959115937151  1.0000
  H   H59       1.0  0.24788908069526208  0.053730128649228694  0.28288079643596775  1.0000
  H   H60       1.0  0.7521109186872862  0.5537301288950236  0.7171192033238482  1.0000
  H   H61       1.0  0.3045817594985415  0.06021270483282766  0.18022706650779843  1.0000
  H   H62       1.0  0.6954182408332147  0.5602127050786226  0.819772933977252  1.0000
  H   H63       1.0  0.3877375445621298  0.2843363383187966  0.23233518000674086  1.0000
  H   H64       1.0  0.6122624555939598  0.7843363385645916  0.7676648197564214  1.0000
  H   H65       1.0  0.3916779599825548  0.17457004790549543  0.23517281350038197  1.0000
  H   H66       1.0  0.6083220401735346  0.6745700475230256  0.7648271862627805  1.0000
  H   H67       1.0  0.42759959250481094  0.23118891703633937  0.08324546624579124  1.0000
  H   H68       1.0  0.5724004068777373  0.7311889172821342  0.9167545335140246  1.0000
  H   H69       1.0  0.30124025293148216  0.28023770447403196  0.05268329696873369  1.0000
  H   H70       1.0  0.6987597472246074  0.7802377047198269  0.9473167027944288  1.0000
  H   H71       1.0  0.3108079737812979  0.16907532627831884  0.055406789843559595  1.0000
  H   H72       1.0  0.6891920265504583  0.6690753265241137  0.9445932106414908  1.0000
  H   H73       1.0  0.7742954499805723  0.15472430045663915  0.5346650312966363  1.0000
  H   H74       1.0  0.22570455017551724  0.6547243000741694  0.46533496846652606  1.0000
  H   H75       1.0  0.6905164631451004  0.14635615104403638  0.615491173050541  1.0000
  H   H76       1.0  0.3094835371866557  0.6463561506615666  0.3845088274345094  1.0000
  H   H77       1.0  0.7855394031429802  0.01355461923416622  0.6109145798355701  1.0000
  H   H78       1.0  0.21446059623956817  0.5135546194799612  0.38908541992424583  1.0000
  H   H79       1.0  0.8270972253711699  0.056377467833498084  0.7278409667824607  1.0000
  H   H80       1.0  0.1729027740113785  0.5563774674510282  0.2721590329773551  1.0000
  H   H81       1.0  0.9111246791229668  0.062085352143339934  0.6448680206714418  1.0000
  H   H82       1.0  0.08887532120878944  0.5620853517608702  0.3551319798136087  1.0000
  H   H83       1.0  0.8525545043564328  0.2812771024969151  0.7999347880528549  1.0000
  H   H84       1.0  0.14744549579965677  0.78127710274271  0.20006521171030744  1.0000
  H   H85       1.0  0.8752140997413124  0.1731712491607869  0.8006382625870957  1.0000
  H   H86       1.0  0.12478589964123589  0.6731712494065818  0.19936173717272015  1.0000
  H   H87       1.0  0.7191743729650065  0.21128529132778084  0.8670043714795581  1.0000
  H   H88       1.0  0.2808256273667497  0.7112852909453111  0.13299562900549236  1.0000
  H   H89       1.0  0.677663935124709  0.14499127231193393  0.7658901443319854  1.0000
  H   H90       1.0  0.3223360642578394  0.6449912719294641  0.2341098554278305  1.0000
  H   H91       1.0  0.6529092516990292  0.25531248131487044  0.7555089673315477  1.0000
  H   H92       1.0  0.3470907478591858  0.7553124815606653  0.2444910331501561  1.0000
  H   H93       1.0  0.9809013728143001  0.1862627857735098  0.7075948613624585  1.0000
  H   H94       1.0  0.019098627517456078  0.6862627860193047  0.2924051391225918  1.0000
  H   H95       1.0  0.9632567990882147  0.2950750850991693  0.6918661489682144  1.0000
  H   H96       1.0  0.03674320047000028  0.7950750847166995  0.30813385151348943  1.0000
  H   H97       1.0  0.04473459359520578  0.24202638305325205  0.5657073312766021  1.0000
  H   H98       1.0  0.9552654067365505  0.7420263832990469  0.4342926692084483  1.0000
  H   H99       1.0  0.9147877387697181  0.27235745476785034  0.5073756148481324  1.0000
  H   H100      1.0  0.08521226156203807  0.7723574550136453  0.49262438563691796  1.0000
  H   H101      1.0  0.9468534367637713  0.16366743711904902  0.5289276624170932  1.0000
  H   H102      1.0  0.05314656356798497  0.6636674373648439  0.47107233806795723  1.0000
  H   H103      1.0  0.6749964419273478  0.2858798867435273  0.6161328546144135  1.0000
  H   H104      1.0  0.32500355840440837  0.7858798869893222  0.3838671458706369  1.0000
  H   H105      1.0  0.7582970890264032  0.29385290224969673  0.5356769164677921  1.0000
  H   H106      1.0  0.2417029111296862  0.7938529018672269  0.4643230832953702  1.0000
  H   H107      1.0  0.730782771066987  0.42936974708943526  0.6196649728298815  1.0000
  H   H108      1.0  0.26921722908910245  0.9293697467069655  0.38033502693328075  1.0000
  H   H109      1.0  0.8673489656022827  0.40521003748463535  0.6383864338890035  1.0000
  H   H110      1.0  0.13265103455380672  0.9052100371021655  0.36161356587415877  1.0000
  H   H111      1.0  0.7977261791711557  0.38769521499910325  0.7314126241062648  1.0000
  H   H112      1.0  0.20227382116060047  0.8876952146166335  0.2685873763787855  1.0000
  C   C1        1.0  0.15839950212632634  0.9434446621181962  0.9384815587707591  1.0000
  C   C2        1.0  0.8416004982054298  0.44344466250066594  0.06151844171429126  1.0000
  C   C3        1.0  0.11001240007601734  0.9811535929066286  0.8513239871981417  1.0000
  C   C4        1.0  0.889987600080072  0.48115359266083374  0.14867601256502064  1.0000
  C   C5        1.0  0.162439561073951  0.0397598991046495  0.8067649920504264  1.0000
  C   C6        1.0  0.8375604392578051  0.5397598993504443  0.19323500843462393  1.0000
  C   C7        1.0  0.26726319924390834  0.06348222902624885  0.8477778879096904  1.0000
  C   C8        1.0  0.7327368001386401  0.5634822286437791  0.1522221118501255  1.0000
  C   C9        1.0  0.3169879352207998  0.023800586575983766  0.9344829016643119  1.0000
  C   C10       1.0  0.6830120649352897  0.523800586193514  0.06551709809885045  1.0000
  C   C11       1.0  0.26365144229355175  0.9646289294525372  0.9781313433324661  1.0000
  C   C12       1.0  0.7363485578625377  0.4646289292067423  0.021868656430696295  1.0000
  C   C13       1.0  0.2810703770420105  0.19893120179927418  0.7723407801875608  1.0000
  C   C14       1.0  0.7189296223405378  0.698931202045069  0.22765921957225513  1.0000
  C   C15       1.0  0.2718571365631034  0.20684837525172123  0.6647075216248626  1.0000
  C   C16       1.0  0.7281428635929861  0.7068483754975161  0.3352924781382998  1.0000
  C   C17       1.0  0.35595701248897166  0.2636906000321599  0.8333127186114513  1.0000
  C   C18       1.0  0.6440429876671178  0.76369059964969  0.16668728115171114  1.0000
  C   C19       1.0  0.4711153378737419  0.2555641679340606  0.8285818626052013  1.0000
  C   C20       1.0  0.5288846622823475  0.7555641681798555  0.17141813715796103  1.0000
  C   C21       1.0  0.26310469139286663  0.3945023697037737  0.84576094693617  1.0000
  C   C22       1.0  0.7368953079896817  0.8945023693213039  0.15423905282364594  1.0000
  C   C23       1.0  0.158471917380648  0.41735126212795737  0.8034241608987392  1.0000
  C   C24       1.0  0.8415280821775671  0.9173512617454875  0.19657583958296468  1.0000
  C   C25       1.0  0.10388069999024224  0.47447984431654094  0.8478834906532767  1.0000
  C   C26       1.0  0.8961192995679729  0.9744798439340712  0.15211650982842723  1.0000
  C   C27       1.0  0.14980075240160715  0.5097159169723979  0.9371954379010017  1.0000
  C   C28       1.0  0.8501992469809412  0.00971591735486771  0.0628045618588143  1.0000
  C   C29       1.0  0.2537549424938009  0.4868790507916168  0.9799315125842045  1.0000
  C   C30       1.0  0.7462450578379554  0.9868790510374117  0.020068487900845925  1.0000
  C   C31       1.0  0.3097451185547547  0.43040756188520657  0.935376036725185  1.0000
  C   C32       1.0  0.6902548816013349  0.9304075621310014  0.06462396303797736  1.0000
  C   C33       1.0  0.398424481444617  0.436007069901391  0.6115862115355846  1.0000
  C   C34       1.0  0.6015755188871392  0.9360070695189212  0.388413788949466  1.0000
  C   C35       1.0  0.29202761944431116  0.45902707273700866  0.5885661261554436  1.0000
  C   C36       1.0  0.7079723807117783  0.9590270729828035  0.41143387360771877  1.0000
  C   C37       1.0  0.25243974313184536  0.5207339594653849  0.640191411029195  1.0000
  C   C38       1.0  0.747560257024244  0.02073395921959005  0.3598085887339673  1.0000
  C   C39       1.0  0.3171694860307318  0.5590551430259014  0.7214308912739459  1.0000
  C   C40       1.0  0.6828305141253577  0.05905514278010652  0.27856910848921645  1.0000
  C   C41       1.0  0.42375917139480207  0.5337789108768719  0.7460867509924278  1.0000
  C   C42       1.0  0.5762408287612873  0.03377891125934171  0.25391324877073457  1.0000
  C   C43       1.0  0.46307896713183966  0.47425809011373515  0.6916130107181744  1.0000
  C   C44       1.0  0.5369210330242499  0.97425809035953  0.30838698904498796  1.0000
  C   C45       1.0  0.23786122146950872  0.7578473940285829  0.7468889585713792  1.0000
  C   C46       1.0  0.7621387786865808  0.257847393782788  0.2531110411917832  1.0000
  C   C47       1.0  0.12481818430645862  0.7488746189776809  0.7586743553648679  1.0000
  C   C48       1.0  0.8751818160252975  0.24887461936015068  0.24132564512018248  1.0000
  C   C49       1.0  0.31676689163322785  0.6937542102251758  0.8047100417829041  1.0000
  C   C50       1.0  0.6832331085228617  0.19375421060764567  0.19528995798025822  1.0000
  C   C51       1.0  0.3353166739436694  0.7020846675237521  0.9134418797175762  1.0000
  C   C52       1.0  0.66468332621242  0.20208466727795724  0.08655812004558612  1.0000
  C   C53       1.0  0.3173333504524227  0.8923280732674583  0.7213427817218776  1.0000
  C   C54       1.0  0.6826666497036668  0.39232807364992817  0.27865721804128485  1.0000
  C   C55       1.0  0.2539031737413035  0.9284172672242568  0.637970878403638  1.0000
  C   C56       1.0  0.7460968256412448  0.42841726760672655  0.3620291213561778  1.0000
  C   C57       1.0  0.29516768481086353  0.9875801649442058  0.5842747786721656  1.0000
  C   C58       1.0  0.704832315345226  0.4875801646984108  0.4157252210909968  1.0000
  C   C59       1.0  0.40130414283364096  0.011446369509737507  0.6091798710705605  1.0000
  C   C60       1.0  0.5986958574981153  0.5114463697555324  0.39082012941448996  1.0000
  C   C61       1.0  0.46412595734775797  0.9763624793972119  0.6923312334537775  1.0000
  C   C62       1.0  0.5358740420347904  0.476362479151417  0.30766876630603834  1.0000
  C   C63       1.0  0.42368302055887896  0.9178792177261026  0.7472377299360703  1.0000
  C   C64       1.0  0.5763169795972105  0.41787921748030765  0.2527622698270921  1.0000
  C   C65       1.0  0.26126178584095416  0.22473208085860208  0.3321616530527852  1.0000
  C   C66       1.0  0.7387382143151353  0.7247320804761322  0.6678383467103772  1.0000
  C   C67       1.0  0.16474271511553165  0.2262362019021305  0.3756623261307479  1.0000
  C   C68       1.0  0.8352572852162247  0.7262362015196607  0.6243376743543025  1.0000
  C   C69       1.0  0.17333402532474412  0.30202852119326606  0.1815001583213212  1.0000
  C   C70       1.0  0.826665975007012  0.8020285208107963  0.8184998421637292  1.0000
  C   C71       1.0  0.22296275302323756  0.38602319334863067  0.21419462502204673  1.0000
  C   C72       1.0  0.7770372463593107  0.8860231935944255  0.785805374737769  1.0000
  C   C73       1.0  0.17644424619543198  0.14991806712830452  0.17872052458704552  1.0000
  C   C74       1.0  0.8235557531871164  0.6499180667458347  0.8212794751727702  1.0000
  C   C75       1.0  0.23078477845648915  0.06643521146098524  0.2050804767884218  1.0000
  C   C76       1.0  0.7692152211017259  0.5664352110785155  0.794919523693282  1.0000
  C   C77       1.0  0.3476000116218273  0.22811809412809933  0.19776653142853104  1.0000
  C   C78       1.0  0.6523999885342622  0.7281180943738942  0.8022334683346313  1.0000
  C   C79       1.0  0.34532218729931935  0.22693231921955137  0.09106582703248833  1.0000
  C   C80       1.0  0.6546778120832291  0.7269323188370815  0.9089341727273276  1.0000
  C   C81       1.0  0.7739824787181515  0.1461875982983057  0.6110967199518598  1.0000
  C   C82       1.0  0.2260175214379379  0.6461875979158358  0.38890327981130257  1.0000
  C   C83       1.0  0.8286481618494311  0.06590522053091974  0.6518672729228686  1.0000
  C   C84       1.0  0.17135183830665834  0.5659052207767146  0.3481327268402937  1.0000
  C   C85       1.0  0.8186860996666946  0.22191581699588367  0.7682405926314213  1.0000
  C   C86       1.0  0.18131390048939486  0.7219158172416785  0.23175940713174095  1.0000
  C   C87       1.0  0.7104015240646232  0.2072676081365496  0.788485140561356  1.0000
  C   C88       1.0  0.28959847626713303  0.7072676077540798  0.2115148599236945  1.0000
  C   C89       1.0  0.9379293521915023  0.23422841403703076  0.6587528556519333  1.0000
  C   C90       1.0  0.06207064814025388  0.7342284136545609  0.34124714483311713  1.0000
  C   C91       1.0  0.9604988468675102  0.22730476711496062  0.5589049673458708  1.0000
  C   C92       1.0  0.039501153288579206  0.7273047673607556  0.4410950324172915  1.0000
  C   C93       1.0  0.7571490828639865  0.2985726430013418  0.612304445089204  1.0000
  C   C94       1.0  0.24285091746776974  0.7985726432471367  0.38769555539584655  1.0000
  C   C95       1.0  0.7920158525291052  0.3842838280020801  0.6534631793432433  1.0000
  C   C96       1.0  0.207984147802651  0.8842838276196103  0.34653682114180717  1.0000
  N   N1        1.0  0.23953651778162488  0.2262348241175844  0.22276773705031885  1.0000
  N   N2        1.0  0.7604634825501313  0.7262348237351145  0.7772322634347315  1.0000
  N   N3        1.0  0.822072350076415  0.22519016374934864  0.6622813773266462  1.0000
  N   N4        1.0  0.17792765007967445  0.7251901639951436  0.3377186224365162  1.0000
  O   O1        1.0  0.32532127160736346  0.11635367246211455  0.8055587125241288  1.0000
  O   O2        1.0  0.674678728548726  0.6163536727079095  0.19444128723903362  1.0000
  O   O3        1.0  0.3182696393252245  0.3463792895039819  0.7953182681526487  1.0000
  O   O4        1.0  0.681730360830865  0.8463792897497768  0.2046817316105138  1.0000
  O   O5        1.0  0.271028574113902  0.6107889071028586  0.7757692179233123  1.0000
  O   O6        1.0  0.7289714260421875  0.11078890748532846  0.22423078183985007  1.0000
  O   O7        1.0  0.27822802451406065  0.84104102174622  0.7813749330153807  1.0000
  O   O8        1.0  0.7217719750441544  0.3410410215004251  0.21862506746632326  1.0000
  F   F1        1.0  0.009337507228452266  0.9599422184623801  0.8058139845794688  1.0000
  F   F2        1.0  0.9906624921540961  0.45994221821658526  0.19418601518034698  1.0000
  F   F3        1.0  0.11178672056257236  0.07277275901502335  0.7202773061887258  1.0000
  F   F4        1.0  0.888213279593517  0.5727727592608183  0.27972269357443663  1.0000
  F   F5        1.0  0.31650018806438546  0.9279495561765702  0.06136837860336994  1.0000
  F   F6        1.0  0.6834998120917041  0.4279495559307753  0.9386316211597925  1.0000
  F   F7        1.0  0.41889665812656257  0.04364997042107942  0.9754071628259904  1.0000
  F   F8        1.0  0.5811033422051938  0.5436499700386096  0.024592837659060104  1.0000
  F   F9        1.0  0.11084808170591727  0.38442167745060657  0.7163429719271337  1.0000
  F   F10       1.0  0.8891519184501723  0.8844216776964015  0.28365702783602864  1.0000
  F   F11       1.0  0.0033689767975906264  0.49530862439004053  0.8014485243650113  1.0000
  F   F12       1.0  0.9966310233584988  0.9953086240075707  0.19855147539815093  1.0000
  F   F13       1.0  0.4118789382731228  0.4114722504435339  0.9769998573183539  1.0000
  F   F14       1.0  0.5881210612850922  0.9114722506893288  0.023000143163350036  1.0000
  F   F15       1.0  0.30391470676810184  0.5212615240370752  0.06550802382983271  1.0000
  F   F16       1.0  0.6960852926144466  0.021261523791280216  0.9344919759299832  1.0000
  F   F17       1.0  0.22360173222196172  0.4212611256680793  0.513498277157011  1.0000
  F   F18       1.0  0.7763982671605865  0.9212611252856096  0.4865017226028049  1.0000
  F   F19       1.0  0.14892708870218024  0.5438493322582835  0.612762707636831  1.0000
  F   F20       1.0  0.8510729106803682  0.04384933201248854  0.3872372921229849  1.0000
  F   F21       1.0  0.5670951378662162  0.4526959843726279  0.719391702590145  1.0000
  F   F22       1.0  0.4329048624655401  0.9526959839901581  0.28060829789490543  1.0000
  F   F23       1.0  0.48932066890922254  0.5670701888140366  0.825590932319248  1.0000
  F   F24       1.0  0.5106793314225336  0.06707018919650647  0.17440906816580248  1.0000
  F   F25       1.0  0.22839291350101593  0.023056474231279742  0.5066121344306596  1.0000
  F   F26       1.0  0.7716070866550735  0.5230564744770746  0.4933878653325028  1.0000
  F   F27       1.0  0.1498000593064195  0.9063742549914037  0.6105768314966031  1.0000
  F   F28       1.0  0.85019994084967  0.40637425537387345  0.3894231682665593  1.0000
  F   F29       1.0  0.5680740735141826  0.9980297937212234  0.7207745210965332  1.0000
  F   F30       1.0  0.4319259266419069  0.49802979347542853  0.2792254786666293  1.0000
  F   F31       1.0  0.4878431278973591  0.8842476452257226  0.8269545660026895  1.0000
  F   F32       1.0  0.5121568724343971  0.38424764497992775  0.17304543448236093  1.0000
  Br  Br1       1.0  0.0787231319138065  0.22968545629903891  0.9192459886767353  1.0000
  Br  Br2       1.0  0.9212768684179498  0.7296854559165691  0.08075401180831512  1.0000
  Br  Br3       1.0  0.4342727091574426  0.7244746031409541  0.5960200999921722  1.0000
  Br  Br4       1.0  0.5657272902251058  0.22447460352342394  0.40397989976764376  1.0000
  I   I1        1.0  0.07191941689185084  0.8577642677434592  0.004970690632742867  1.0000
  I   I2        1.0  0.9280805832642386  0.35776426749766427  0.9950293091304195  1.0000
  I   I3        1.0  0.0641936016118876  0.5978362176230485  0.0016497063403890131  1.0000
  I   I4        1.0  0.9358063977706607  0.0978362173772536  0.9983502934194268  1.0000
  I   I5        1.0  0.4624617330541764  0.34949691939090644  0.5264447104693162  1.0000
  I   I6        1.0  0.5375382663283719  0.8494969196367015  0.4735552892904996  1.0000
  I   I7        1.0  0.4675266425581744  0.09567360453426973  0.5229050896387512  1.0000
  I   I8        1.0  0.5324733577735818  0.5956736047800646  0.47709491084629924  1.0000
