data_image0
_chemical_formula_structural       H36C100F32Br8
_chemical_formula_sum              "H36 C100 F32 Br8"
_cell_length_a       15.839090968500388
_cell_length_b       7.670750798945854
_cell_length_c       18.82625099596153
_cell_angle_alpha    90.0
_cell_angle_beta     108.29536624585235
_cell_angle_gamma    90.0

_space_group_name_H-M_alt    "P 1"
_space_group_IT_number       1

loop_
  _space_group_symop_operation_xyz
  'x, y, z'

loop_
  _atom_site_type_symbol
  _atom_site_label
  _atom_site_symmetry_multiplicity
  _atom_site_fract_x
  _atom_site_fract_y
  _atom_site_fract_z
  _atom_site_occupancy
  H   H1        1.0  0.7762414063347489  0.0946481614420029  0.9014058290557426  1.0000
  H   H2        1.0  0.7237585939013308  0.5946481615107149  0.5985941710433721  1.0000
  H   H3        1.0  0.22375859389273917  0.9053518386954211  0.09859417119681764  1.0000
  H   H4        1.0  0.2762414061158524  0.4053518386267091  0.40140582864973684  1.0000
  H   H5        1.0  0.8964625902114371  0.09024553112781761  0.7953765405680057  1.0000
  H   H6        1.0  0.603537409393812  0.5902455311965297  0.7046234595324943  1.0000
  H   H7        1.0  0.10353741001605091  0.9097544690096063  0.2046234596845545  1.0000
  H   H8        1.0  0.39646259020284563  0.40975446894089435  0.2953765407214512  1.0000
  H   H9        1.0  0.9323564365607467  0.6492415854109608  0.08990094298003648  1.0000
  H   H10       1.0  0.5676435632773402  0.14924158534224868  0.41009905720356404  1.0000
  H   H11       1.0  0.06764356303591099  0.35075841342281  0.9100990572739092  1.0000
  H   H12       1.0  0.4323564369501479  0.850758413491522  0.5899009430489961  1.0000
  H   H13       1.0  0.8245351835116648  0.315839660745196  0.7011245489317657  1.0000
  H   H14       1.0  0.675464816724415  0.815839660813908  0.798875451167349  1.0000
  H   H15       1.0  0.1754648167158235  0.684160339392228  0.2988754513207946  1.0000
  H   H16       1.0  0.3245351835030731  0.18416033932351597  0.20112454908521116  1.0000
  H   H17       1.0  0.6907286140059905  0.869723014716736  0.9428641580654706  1.0000
  H   H18       1.0  0.8092713862300891  0.369723014648024  0.557135842033644  1.0000
  H   H19       1.0  0.3092713862214975  0.130276985420688  0.05713584218708952  1.0000
  H   H20       1.0  0.19072861378709405  0.6302769854893999  0.4428641576594649  1.0000
  H   H21       1.0  0.842356399604684  0.6838035581498526  0.8782975888902355  1.0000
  H   H22       1.0  0.6576436006313959  0.18380355808114057  0.6217024112088793  1.0000
  H   H23       1.0  0.15764360041249928  0.3161964419875714  0.12170241080287349  1.0000
  H   H24       1.0  0.3423563995960923  0.8161964420562835  0.37829758904368094  1.0000
  H   H25       1.0  0.913831919458145  0.45684273050319646  0.9723156988537104  1.0000
  H   H26       1.0  0.5861680807779347  0.9568427305719085  0.5276843012454042  1.0000
  H   H27       1.0  0.08616808076934311  0.5431572696342275  0.027684301398849774  1.0000
  H   H28       1.0  0.4138319194495535  0.04315726956551555  0.47231569900715603  1.0000
  H   H29       1.0  0.769464680984319  0.6460292844712161  0.03689383830764225  1.0000
  H   H30       1.0  0.730535318853768  0.14602928440250412  0.46310616187595827  1.0000
  H   H31       1.0  0.23053531924316922  0.35397071436255456  0.963106161944918  1.0000
  H   H32       1.0  0.26946468074288965  0.8539707144312665  0.5368938383779873  1.0000
  H   H33       1.0  0.7978271241790873  0.6138803858218311  0.7422278519265681  1.0000
  H   H34       1.0  0.7021728760569924  0.11388038575311904  0.7577721481725465  1.0000
  H   H35       1.0  0.20217287604840087  0.386119614315593  0.2577721483259921  1.0000
  H   H36       1.0  0.29782712396019073  0.886119614384305  0.24222785152056234  1.0000
  C   C1        1.0  0.5438802441956976  0.9244952998570299  0.14268448943357834  1.0000
  C   C2        1.0  0.9561197562732199  0.42449529978831796  0.3573155107486368  1.0000
  C   C3        1.0  0.45611975603179056  0.07550470028039405  0.8573155108189818  1.0000
  C   C4        1.0  0.04388024395426828  0.5755047003491061  0.6426844895039233  1.0000
  C   C5        1.0  0.5227954410886971  0.5762833386019379  0.10278901212246187  1.0000
  C   C6        1.0  0.9772045593802203  0.07628333853322594  0.3972109880597533  1.0000
  C   C7        1.0  0.4772045591387909  0.42371666153548604  0.8972109881300983  1.0000
  C   C8        1.0  0.022795440847267888  0.9237166616041981  0.6027890121928069  1.0000
  C   C9        1.0  0.6995006731655191  0.9313947783288469  0.1373594436163303  1.0000
  C   C10       1.0  0.8004993273033982  0.43139477826013495  0.3626405565658849  1.0000
  C   C11       1.0  0.30049932706196886  0.06860522180857706  0.8626405566362298  1.0000
  C   C12       1.0  0.19950067292408996  0.568605221877289  0.6373594436866754  1.0000
  C   C13       1.0  0.6156939746737975  0.8380235766339064  0.13001232658058431  1.0000
  C   C14       1.0  0.8843060251642895  0.3380235765651944  0.36998767360301626  1.0000
  C   C15       1.0  0.38430602492286015  0.16197642219986427  0.8699876736733614  1.0000
  C   C16       1.0  0.11569397506319865  0.6619764222685762  0.6300123266495439  1.0000
  C   C17       1.0  0.6028190941404191  0.6616794787151092  0.11028166128294568  1.0000
  C   C18       1.0  0.8971809054873626  0.16167947864639712  0.3897183383412035  1.0000
  C   C19       1.0  0.39718090587676386  0.3383205214223149  0.8897183384101631  1.0000
  C   C20       1.0  0.10281909389898995  0.8383205214910269  0.6102816613532908  1.0000
  C   C21       1.0  0.4644752226143848  0.8394261811874891  0.1369345032611952  1.0000
  C   C22       1.0  0.035524777394206807  0.33942618111877715  0.36306549658535925  1.0000
  C   C23       1.0  0.5355247776131035  0.16057381764628154  0.863065496991365  1.0000
  C   C24       1.0  0.9644752226229764  0.6605738177149936  0.6369345031077496  1.0000
  C   C25       1.0  0.7010596862710279  0.0795256117672121  0.09436090554004835  1.0000
  C   C26       1.0  0.7989403139875846  0.5795256118359241  0.4056390940827155  1.0000
  C   C27       1.0  0.29894031374615526  0.9204743883702119  0.9056390941530604  1.0000
  C   C28       1.0  0.20105968602959862  0.4204743883014999  0.5943609056103935  1.0000
  C   C29       1.0  0.8595754302198872  0.9678340053779662  0.19571552794004268  1.0000
  C   C30       1.0  0.6404245702490302  0.46783400530925406  0.30428447224217253  1.0000
  C   C31       1.0  0.14042457000760086  0.032165994759457917  0.8042844723125175  1.0000
  C   C32       1.0  0.35957542976815293  0.53216599482817  0.6957155274509363  1.0000
  C   C33       1.0  0.4529087344216215  0.6636574793564656  0.11757366575971662  1.0000
  C   C34       1.0  0.04709126579727499  0.16365747928775354  0.38242633464628917  1.0000
  C   C35       1.0  0.5470912658058665  0.33634252078095844  0.8824263344928436  1.0000
  C   C36       1.0  0.9529087337993827  0.8363425208496704  0.6175736656076564  1.0000
  C   C37       1.0  0.7793203363726114  0.17095476236566193  0.1018556577073097  1.0000
  C   C38       1.0  0.7206796632551705  0.6709547611307206  0.3981443419168395  1.0000
  C   C39       1.0  0.22067966301374123  0.8290452377717621  0.8981443419871844  1.0000
  C   C40       1.0  0.27932033676201257  0.3290452377030501  0.6018556577762694  1.0000
  C   C41       1.0  0.8596352241983118  0.11658652242006078  0.15292235669092008  1.0000
  C   C42       1.0  0.640364775639775  0.6165865224887729  0.3470776434926805  1.0000
  C   C43       1.0  0.14036477602917619  0.8834134777173632  0.8470776435616401  1.0000
  C   C44       1.0  0.3596352245877131  0.38341347764865125  0.6529223567598796  1.0000
  C   C45       1.0  0.780623591984499  0.8784727801255175  0.18807236910723937  1.0000
  C   C46       1.0  0.7193764082741133  0.37847278005680557  0.3119276305155244  1.0000
  C   C47       1.0  0.2193764080326841  0.12152722001190645  0.8119276305858696  1.0000
  C   C48       1.0  0.28062359174306983  0.6215272200806184  0.6880723691775844  1.0000
  C   C49       1.0  0.8106949457896597  0.9958942312465446  0.9415866814608584  1.0000
  C   C50       1.0  0.689305054236115  0.49589423117783266  0.5584133180788049  1.0000
  C   C51       1.0  0.1893050542275234  0.004105768890879375  0.05841331823225044  1.0000
  C   C52       1.0  0.3106949457810682  0.5041057689595914  0.441586681614304  1.0000
  C   C53       1.0  0.9056652035337773  4.716878562261764e-05  0.9697509872681537  1.0000
  C   C54       1.0  0.5943347960714718  0.5000471688543346  0.5302490128323464  1.0000
  C   C55       1.0  0.09433479585257522  0.9999528313518015  0.030249012426340614  1.0000
  C   C56       1.0  0.4056652035251858  0.49995283128308937  0.46975098742159915  1.0000
  C   C57       1.0  0.8839908851506347  0.22041345030167683  0.8132407434922463  1.0000
  C   C58       1.0  0.6160091144546144  0.7204134503703888  0.6867592566082537  1.0000
  C   C59       1.0  0.11600911507685338  0.7795865498357472  0.18675925676031382  1.0000
  C   C60       1.0  0.38399088493173816  0.2795865497670352  0.31324074308624056  1.0000
  C   C61       1.0  0.9098727827694891  0.25968060392129294  0.8897940910236125  1.0000
  C   C62       1.0  0.5901272174665906  0.759680603990005  0.6102059090755021  1.0000
  C   C63       1.0  0.09012721745799894  0.740319396216131  0.11020590922894766  1.0000
  C   C64       1.0  0.4098727825505926  0.24031939614741904  0.3897940906176068  1.0000
  C   C65       1.0  0.9510470739563666  0.8713402475437632  0.024535232478974482  1.0000
  C   C66       1.0  0.5489529265125508  0.3713402474750511  0.47546476770324075  1.0000
  C   C67       1.0  0.04895292627112152  0.12865975259366086  0.9754647677735858  1.0000
  C   C68       1.0  0.45104707371493735  0.6286597526623728  0.5245352325493196  1.0000
  C   C69       1.0  0.9553942911721315  0.12684409199340854  0.9460737385187984  1.0000
  C   C70       1.0  0.5446057090639482  0.6268440920621206  0.5539262615803161  1.0000
  C   C71       1.0  0.04460570905535669  0.8731559081440154  0.05392626173376177  1.0000
  C   C72       1.0  0.4553942909532349  0.37315590807530347  0.44607373811279266  1.0000
  C   C73       1.0  0.8987837862937108  0.7456852634016035  0.048102518073195225  1.0000
  C   C74       1.0  0.601216213544376  0.24568526333289148  0.45189748211040537  1.0000
  C   C75       1.0  0.10121621393377736  0.2543147367358205  0.9518974821793651  1.0000
  C   C76       1.0  0.3987837866831121  0.7543147368045325  0.5481025181421549  1.0000
  C   C77       1.0  0.8437876845878761  0.3472528843416547  0.7604458867474393  1.0000
  C   C78       1.0  0.6562123156482036  0.8472528844103666  0.7395541133516754  1.0000
  C   C79       1.0  0.15621231563961205  0.6527471157957694  0.239554113505121  1.0000
  C   C80       1.0  0.34378768457928455  0.15274711572705732  0.26044588690088477  1.0000
  C   C81       1.0  0.7631258185595932  0.871204019679322  0.9650934988331806  1.0000
  C   C82       1.0  0.7368741814661817  0.37120401961061006  0.5349065007064826  1.0000
  C   C83       1.0  0.23687418145759  0.12879598045810192  0.03490650085992821  1.0000
  C   C84       1.0  0.2631258185510016  0.6287959805268138  0.4650934989866262  1.0000
  C   C85       1.0  0.8541917414372902  0.5541597245714416  0.859796395654827  1.0000
  C   C86       1.0  0.6458082587987896  0.05415972450272954  0.6402036044442876  1.0000
  C   C87       1.0  0.14580825857989307  0.44584027556598244  0.14020360403828183  1.0000
  C   C88       1.0  0.35419174142869847  0.9458402756346944  0.35979639580827255  1.0000
  C   C89       1.0  0.8943781476473248  0.42701076802679233  0.9127426830945672  1.0000
  C   C90       1.0  0.6056218525887549  0.9270107680955043  0.5872573170045473  1.0000
  C   C91       1.0  0.10562185258016328  0.5729892321106317  0.0872573171579929  1.0000
  C   C92       1.0  0.39437814763873325  0.07298923204191972  0.41274268324801283  1.0000
  C   C93       1.0  0.8077705524947515  0.7443232480951701  0.018806252829636144  1.0000
  C   C94       1.0  0.6922294479741659  0.24432324802645816  0.481193747352579  1.0000
  C   C95       1.0  0.1922294477327366  0.2556767520422539  0.981193747422924  1.0000
  C   C96       1.0  0.3077705522533222  0.7556767521109659  0.5188062528999813  1.0000
  C   C97       1.0  0.8290161436863456  0.5144616887492053  0.7834997961626327  1.0000
  C   C98       1.0  0.6709838565497341  0.014461688680493273  0.7165002039364821  1.0000
  C   C99       1.0  0.17098385654114254  0.4855383113882187  0.21650020408992757  1.0000
  C   C100      1.0  0.329016143677754  0.9855383114569307  0.28349979631607825  1.0000
  F   F1        1.0  0.6688417967072144  0.5691119284698868  0.09678139905873183  1.0000
  F   F2        1.0  0.8311582037617029  0.06911192840117475  0.4032186011234834  1.0000
  F   F3        1.0  0.3311582035202737  0.43088807166753723  0.9032186011938284  1.0000
  F   F4        1.0  0.16884179646578512  0.9308880717362492  0.5967813991290768  1.0000
  F   F5        1.0  0.3988655502771122  0.9294643180143188  0.15165247480229158  1.0000
  F   F6        1.0  0.10113444973147938  0.4294643179456068  0.3483475250442628  1.0000
  F   F7        1.0  0.6011344497400709  0.0705356821231052  0.8483475248908173  1.0000
  F   F8        1.0  0.8988655504960087  0.5705356821918172  0.6516524752082974  1.0000
  F   F9        1.0  0.513998708024696  0.40799742972097186  0.08132913184561764  1.0000
  F   F10       1.0  0.9860012924442214  0.9079974297896839  0.41867086833659756  1.0000
  F   F11       1.0  0.48600129220279215  0.5920025704164522  0.9186708684069426  1.0000
  F   F12       1.0  0.013998707783266721  0.09200257034774015  0.5813291319159626  1.0000
  F   F13       1.0  0.5514844835090971  0.09353050552738525  0.1631945269352429  1.0000
  F   F14       1.0  0.9485155163289898  0.5935305055960972  0.33680547324835763  1.0000
  F   F15       1.0  0.4485155160875605  0.9064694946100387  0.8368054733187027  1.0000
  F   F16       1.0  0.05148448368819335  0.40646949454132675  0.6631945264447512  1.0000
  F   F17       1.0  0.7771581266981425  0.3103202192837659  0.05781428105376132  1.0000
  F   F18       1.0  0.7228418731399443  0.8103202193524779  0.4421857191298392  1.0000
  F   F19       1.0  0.222841872898515  0.6896797808536581  0.9421857192001843  1.0000
  F   F20       1.0  0.2771581270875439  0.18967978078494613  0.557814281122721  1.0000
  F   F21       1.0  0.7831097478360632  0.7370308406808025  0.23157717555833152  1.0000
  F   F22       1.0  0.7168902526328541  0.2370308406120904  0.26842282462388367  1.0000
  F   F23       1.0  0.21689025239142484  0.2629691594566216  0.7684228246942286  1.0000
  F   F24       1.0  0.283109747594634  0.7629691595253336  0.7315771756286766  1.0000
  F   F25       1.0  0.9359072663432857  0.9083514824855912  0.24461886481649298  1.0000
  F   F26       1.0  0.5640927341256318  0.4083514824168792  0.2553811353657222  1.0000
  F   F27       1.0  0.06409273388420256  0.09164851765183284  0.7553811354360672  1.0000
  F   F28       1.0  0.4359072658915513  0.5916485177205448  0.7446188643273867  1.0000
  F   F29       1.0  0.6256103292376156  0.1330745420826707  0.04206157170314916  1.0000
  F   F30       1.0  0.8743896703901664  0.6330745421513827  0.45793842792100004  1.0000
  F   F31       1.0  0.37438967077956764  0.8669254580547534  0.9579384279899598  1.0000
  F   F32       1.0  0.12561032962701676  0.36692545798604126  0.5420615717721088  1.0000
  Br  Br1       1.0  0.9650516287193269  0.24029412091620872  0.16203061138841157  1.0000
  Br  Br2       1.0  0.5349483711187601  0.7402941209849208  0.337969388795189  1.0000
  Br  Br3       1.0  0.034948370667025754  0.7597058792212152  0.8379693883060827  1.0000
  Br  Br4       1.0  0.46505162910872805  0.25970587915250326  0.6620306114573712  1.0000
  Br  Br5       1.0  0.3470829308596039  0.5499260034076067  0.11458980263106965  1.0000
  Br  Br6       1.0  0.15291706935929267  0.04992600333889471  0.3854101977749361  1.0000
  Br  Br7       1.0  0.6529170693678842  0.4500739967298173  0.8854101976214905  1.0000
  Br  Br8       1.0  0.8470829308681954  0.9500739967985292  0.6145898024776241  1.0000
