data_image0
_chemical_formula_structural       H18C32F4Br2
_chemical_formula_sum              "H18 C32 F4 Br2"
_cell_length_a       7.514630631646856
_cell_length_b       8.625739966689569
_cell_length_c       10.142182909888085
_cell_angle_alpha    108.78932509715852
_cell_angle_beta     94.45838535351943
_cell_angle_gamma    91.95750675719746

_space_group_name_H-M_alt    "P 1"
_space_group_IT_number       1

loop_
  _space_group_symop_operation_xyz
  'x, y, z'

loop_
  _atom_site_type_symbol
  _atom_site_label
  _atom_site_symmetry_multiplicity
  _atom_site_fract_x
  _atom_site_fract_y
  _atom_site_fract_z
  _atom_site_occupancy
  H   H1        1.0  0.6299686818643078  0.9570875458020248  0.752081301299369  1.0000
  H   H2        1.0  0.3700313181626064  0.04291245406424943  0.24791869847018197  1.0000
  H   H3        1.0  0.6605925647258014  0.20025559803928117  0.6770980779430421  1.0000
  H   H4        1.0  0.33940743530111284  0.7997444018269931  0.3229019218265088  1.0000
  H   H5        1.0  0.3019608106865819  0.6500840568901002  0.9858536154957541  1.0000
  H   H6        1.0  0.6980391893403324  0.3499159429761741  0.014146384273796872  1.0000
  H   H7        1.0  0.9181025120015046  0.4075043640071187  0.7777626442260648  1.0000
  H   H8        1.0  0.08189748816282098  0.5924956362520369  0.22223735658951588  1.0000
  H   H9        1.0  0.8022819032173479  0.6412181760363461  0.6908995978702517  1.0000
  H   H10       1.0  0.1977180954805829  0.3587818238454693  0.30910040190900256  1.0000
  H   H11       1.0  0.5591998469817171  0.85622098681756  0.07320005209278067  1.0000
  H   H12       1.0  0.44080015304519704  0.14377901304871424  0.9267999476767702  1.0000
  H   H13       1.0  0.5436123054924491  0.4353779566304308  0.6019862875967256  1.0000
  H   H14       1.0  0.45638769453446515  0.5646220432358435  0.3980137121728254  1.0000
  H   H15       1.0  0.2954925926675795  0.43757341765946683  0.751394451759102  1.0000
  H   H16       1.0  0.7045074073593348  0.5624265822068074  0.2486055480104489  1.0000
  H   H17       1.0  0.14391367067353714  0.36920839855729787  0.9521650362854709  1.0000
  H   H18       1.0  0.8560863280243936  0.6307916013245177  0.047834963493783376  1.0000
  C   C1        1.0  0.09311346811319611  0.9059449096408593  0.5706046446724201  1.0000
  C   C2        1.0  0.9068865319137182  0.09405509022541493  0.42939535509713084  1.0000
  C   C3        1.0  0.9292280633773923  0.8470738506722334  0.49265418864563915  1.0000
  C   C4        1.0  0.07077193664952204  0.1529261491940409  0.5073458111239119  1.0000
  C   C5        1.0  0.162843076554994  0.060201508358130054  0.576616189901917  1.0000
  C   C6        1.0  0.8371569236093317  0.9397984919010257  0.4233838109136637  1.0000
  C   C7        1.0  0.7439442410695604  0.045557265573318045  0.7948189266197092  1.0000
  C   C8        1.0  0.2560557589573539  0.9544427342929562  0.20518107314984174  1.0000
  C   C9        1.0  0.7613813813690615  0.1809667160193101  0.7525919603944018  1.0000
  C   C10       1.0  0.23861861865785278  0.8190332838469643  0.24740803937514916  1.0000
  C   C11       1.0  0.41113779851945564  0.647875191576507  0.9208885998066242  1.0000
  C   C12       1.0  0.5888622015074586  0.3521248082897672  0.07911139996292671  1.0000
  C   C13       1.0  0.8525659263667273  0.8827471552673689  0.9435768363959353  1.0000
  C   C14       1.0  0.1474340736601868  0.11725284459890536  0.05642316337361551  1.0000
  C   C15       1.0  0.8711798289528344  0.019144059437971244  0.8966661748259572  1.0000
  C   C16       1.0  0.1288201710740798  0.9808559404283029  0.10333382494359374  1.0000
  C   C17       1.0  0.9077927006741621  0.29851718420436796  0.8097127370221927  1.0000
  C   C18       1.0  0.09220729935275211  0.7014828156619062  0.19028726274735813  1.0000
  C   C19       1.0  0.6919096970680293  0.6428919076119338  0.7548578248942303  1.0000
  C   C20       1.0  0.3080903029588849  0.35710809225434037  0.24514217487532072  1.0000
  C   C21       1.0  0.02068018298130124  0.13835165136452468  0.9542847202810338  1.0000
  C   C22       1.0  0.9793198171830244  0.8616483488946309  0.04571528053454689  1.0000
  C   C23       1.0  0.5555065311277125  0.7635899107231109  0.9701560763357043  1.0000
  C   C24       1.0  0.4444934690366131  0.2364100895360448  0.02984392447987623  1.0000
  C   C25       1.0  0.5470932392052191  0.5273717711330593  0.7054723280087399  1.0000
  C   C26       1.0  0.4529067594927116  0.4726282287487562  0.29452767177051425  1.0000
  C   C27       1.0  0.697539811991813  0.7615504793228202  0.8879228086922085  1.0000
  C   C28       1.0  0.30246018803510116  0.23844952054345414  0.11207719107734254  1.0000
  C   C29       1.0  0.40706273967576245  0.5291174826534241  0.7889126767203876  1.0000
  C   C30       1.0  0.5929372604110226  0.47088251837514083  0.21108732305537445  1.0000
  C   C31       1.0  0.033318059622836224  0.27767838195221817  0.9075001295742897  1.0000
  C   C32       1.0  0.9666819404040781  0.7223216179140561  0.09249987019526124  1.0000
  F   F1        1.0  0.3224301739800347  0.12157216837229616  0.6491606112885198  1.0000
  F   F2        1.0  0.6775698260468794  0.8784278314939781  0.3508393884810311  1.0000
  F   F3        1.0  0.8579454252567462  0.6968529762320672  0.481745434699868  1.0000
  F   F4        1.0  0.142054574770168  0.30314702363420704  0.5182545650696829  1.0000
  Br  Br1       1.0  0.21822993284898207  0.7788749178392389  0.6619353318984498  1.0000
  Br  Br2       1.0  0.7817700671779321  0.22112508202703532  0.3380646678711011  1.0000
