data_image0
_chemical_formula_structural       H52C52O6
_chemical_formula_sum              "H52 C52 O6"
_cell_length_a       8.989398500722716
_cell_length_b       9.484045774697318
_cell_length_c       12.520981246378122
_cell_angle_alpha    85.97216745610483
_cell_angle_beta     72.2746727680857
_cell_angle_gamma    74.9247994734745

_space_group_name_H-M_alt    "P 1"
_space_group_IT_number       1

loop_
  _space_group_symop_operation_xyz
  'x, y, z'

loop_
  _atom_site_type_symbol
  _atom_site_label
  _atom_site_symmetry_multiplicity
  _atom_site_fract_x
  _atom_site_fract_y
  _atom_site_fract_z
  _atom_site_occupancy
  H   H1        1.0  0.9687419928469242  0.904590656419625  0.44439253942849083  1.0000
  H   H2        1.0  0.03125800747339499  0.09540934364090668  0.5556074601478052  1.0000
  H   H3        1.0  0.9270698519996343  0.6825316877922103  0.254689271137325  1.0000
  H   H4        1.0  0.07293014831000122  0.31746831227150024  0.745310729239765  1.0000
  H   H5        1.0  0.5849069210284201  0.6015645226117858  0.4494131937561366  1.0000
  H   H6        1.0  0.4150930781239695  0.3984354774491324  0.5505868060687232  1.0000
  H   H7        1.0  0.2653304962488935  0.30805553630740173  0.4379454570818318  1.0000
  H   H8        1.0  0.7346695040607417  0.6919444637563088  0.5620545432952583  1.0000
  H   H9        1.0  0.28016126714837264  0.015451305670477988  0.2730444836447999  1.0000
  H   H10       1.0  0.7198387331612627  0.9845486943932324  0.7269555167322901  1.0000
  H   H11       1.0  0.11625902430537313  0.9164021838605751  0.08442670535110906  1.0000
  H   H12       1.0  0.8837409748470165  0.08359781620034311  0.9155732944737507  1.0000
  H   H13       1.0  0.8898235372383659  0.13483661506713607  0.09104043891100352  1.0000
  H   H14       1.0  0.11017646308195336  0.8651633849933956  0.9089595606652925  1.0000
  H   H15       1.0  0.6567532203735399  0.8425513350311482  0.4270769995708669  1.0000
  H   H16       1.0  0.3432467799467793  0.15744866502938348  0.572923000005429  1.0000
  H   H17       1.0  0.7437431611112209  0.1212901854388393  0.4512401436901154  1.0000
  H   H18       1.0  0.2562568392090983  0.8787098146216924  0.5487598558861805  1.0000
  H   H19       1.0  0.02564277167227338  0.2572228731031333  0.40165169432629566  1.0000
  H   H20       1.0  0.9743572286480459  0.7427771269573984  0.5983483052500003  1.0000
  H   H21       1.0  0.8538043632448709  0.44702027414373324  0.3126416371921038  1.0000
  H   H22       1.0  0.14619563706476457  0.5529797259199773  0.6873583631849861  1.0000
  H   H23       1.0  0.6963447193290209  0.3498528199492455  0.20650531567413535  1.0000
  H   H24       1.0  0.30365528099129835  0.6501471801112862  0.7934946839021606  1.0000
  H   H25       1.0  0.6160787526671812  0.3318656284224359  0.3542310040334261  1.0000
  H   H26       1.0  0.38392124765313806  0.6681343716380959  0.6457689955428699  1.0000
  H   H27       1.0  0.5588535312584509  0.2418197203588886  0.2606217716129851  1.0000
  H   H28       1.0  0.4411464690511843  0.7581802797048219  0.739378228764105  1.0000
  H   H29       1.0  0.49959810408007466  0.05075962900251223  0.3434075002971864  1.0000
  H   H30       1.0  0.5004018962402447  0.9492403710580194  0.6565924992791096  1.0000
  H   H31       1.0  0.24586594124603411  0.6752410256013277  0.1072634574627191  1.0000
  H   H32       1.0  0.7541340590742852  0.324758974459204  0.8927365421135769  1.0000
  H   H33       1.0  0.6832638526115978  0.9687041278175532  0.9972536246842669  1.0000
  H   H34       1.0  0.31673614770872127  0.03129587224297852  0.002746374892028966  1.0000
  H   H35       1.0  0.5377074120718275  0.8760010219198949  0.07463245663320633  1.0000
  H   H36       1.0  0.4622925882378079  0.1239989781438157  0.9253675437438836  1.0000
  H   H37       1.0  0.5143220425629323  0.6460306257198759  0.9882579584723562  1.0000
  H   H38       1.0  0.48567795774670314  0.3539693743438347  0.01174204190473381  1.0000
  H   H39       1.0  0.6571894770959797  0.5714273375333793  0.8590374540456946  1.0000
  H   H40       1.0  0.3428105232243395  0.42857266252715237  0.14096254553060125  1.0000
  H   H41       1.0  0.7709085878062968  0.8224514559610979  0.15183972694073578  1.0000
  H   H42       1.0  0.22909141250333878  0.1775485441026126  0.8481602734363543  1.0000
  H   H43       1.0  0.9051892320964252  0.7569565529408901  0.019646169119325818  1.0000
  H   H44       1.0  0.09481076705596438  0.2430434471200281  0.980353830705534  1.0000
  H   H45       1.0  0.8448765415318745  0.5435908220770591  0.13473709157847744  1.0000
  H   H46       1.0  0.1551234587884447  0.45640917798347247  0.8652629079978186  1.0000
  H   H47       1.0  0.6339962926935497  0.6268806963731507  0.1666625551041392  1.0000
  H   H48       1.0  0.3660037076267696  0.3731193036873809  0.8333374444721569  1.0000
  H   H49       1.0  0.7922059898674363  0.7740747324823416  0.8494188702489509  1.0000
  H   H50       1.0  0.20779401045288273  0.2259252675781901  0.15058112932734496  1.0000
  H   H51       1.0  0.5834656537977374  0.848999088148608  0.8699970982867198  1.0000
  H   H52       1.0  0.4165343465225819  0.1510009119119236  0.1300029012895762  1.0000
  C   C1        1.0  0.05755495246259582  0.8945635543897049  0.26340882171844565  1.0000
  C   C2        1.0  0.9424450478577234  0.10543644567082683  0.7365911778578503  1.0000
  C   C3        1.0  0.19717778652659004  0.7609138658397422  0.2605345450886199  1.0000
  C   C4        1.0  0.8028222126151158  0.23908613422435493  0.739465455537034  1.0000
  C   C5        1.0  0.3955840471933395  0.676186784062798  0.3717808238789281  1.0000
  C   C6        1.0  0.6044159531269796  0.3238132159977337  0.6282191756973678  1.0000
  C   C7        1.0  0.9514087849533027  0.9541292198158698  0.3662584023465163  1.0000
  C   C8        1.0  0.04859121536701649  0.04587078024466178  0.6337415972297795  1.0000
  C   C9        1.0  0.31014827055800936  0.7904929520024352  0.3199689078256986  1.0000
  C   C10       1.0  0.6898517297623098  0.20950704805809658  0.6800310917505974  1.0000
  C   C11       1.0  0.22943871142690492  0.5212956312217818  0.3641945838330064  1.0000
  C   C12       1.0  0.7705612888827305  0.4787043688419287  0.6358054165440836  1.0000
  C   C13       1.0  0.13733506468086645  0.6279101612002662  0.3109745392621525  1.0000
  C   C14       1.0  0.8626649356394528  0.3720898388602655  0.6890254603141435  1.0000
  C   C15       1.0  0.0005625057096181815  0.5992610300251354  0.29465636520455785  1.0000
  C   C16       1.0  0.9994374946000172  0.4007389700385751  0.7053436351725323  1.0000
  C   C17       1.0  0.520621610533217  0.6933750695023307  0.4102260416282137  1.0000
  C   C18       1.0  0.4793783897764184  0.30662493056137974  0.5897739587488763  1.0000
  C   C19       1.0  0.1904535109013602  0.3881376645594748  0.39695977534391436  1.0000
  C   C20       1.0  0.8095464882510295  0.6118623355014433  0.6030402244809455  1.0000
  C   C21       1.0  0.7993877957473173  0.14321528202619285  0.27111853712844614  1.0000
  C   C22       1.0  0.20061220457300186  0.8567847180343388  0.7288814624478499  1.0000
  C   C23       1.0  0.3479495798400049  0.925779353182071  0.31204608382736915  1.0000
  C   C24       1.0  0.6520504204803145  0.07422064687846061  0.6879539157489268  1.0000
  C   C25       1.0  0.033535796420207445  0.9608548368142383  0.16480185530132663  1.0000
  C   C26       1.0  0.9664642038894278  0.03914516324947222  0.8351981450757634  1.0000
  C   C27       1.0  0.9061068867255746  0.08341928686621089  0.16879448189646007  1.0000
  C   C28       1.0  0.09389311241613128  0.9165807131978863  0.8312055187291938  1.0000
  C   C29       1.0  0.5587235576215024  0.8278277351203734  0.3985648587202418  1.0000
  C   C30       1.0  0.4412764415308874  0.17217226494054477  0.6014351411046182  1.0000
  C   C31       1.0  0.8245219112765656  0.07678616343685479  0.37012652638761157  1.0000
  C   C32       1.0  0.17547808904375373  0.923213836623677  0.6298734731886844  1.0000
  C   C33       1.0  0.05614445011606576  0.3611718017780565  0.3774714300832229  1.0000
  C   C34       1.0  0.9438555502042534  0.6388281982824751  0.6225285694930731  1.0000
  C   C35       1.0  0.9598461414133869  0.4675003950848695  0.3269590525098841  1.0000
  C   C36       1.0  0.04015385773900261  0.5324996049760488  0.6730409473149759  1.0000
  C   C37       1.0  0.6614170818343339  0.2736642056326561  0.273772997068852  1.0000
  C   C38       1.0  0.3385829176207221  0.7263357933362327  0.7262270027502733  1.0000
  C   C39       1.0  0.4707861765738788  0.9452818850681793  0.35093160653421873  1.0000
  C   C40       1.0  0.5292138237464404  0.05471811499235248  0.6490683930420772  1.0000
  C   C41       1.0  0.7405631668430023  0.5407203597191216  0.004160060241791489  1.0000
  C   C42       1.0  0.25943683229870357  0.4592796403449755  0.9958399403838624  1.0000
  C   C43       1.0  0.6608134539391307  0.8599255774363577  0.016975631814674756  1.0000
  C   C44       1.0  0.33918654520257524  0.14007442262773942  0.9830243688109791  1.0000
  C   C45       1.0  0.6406201401279412  0.631423292992339  0.9352796262384335  1.0000
  C   C46       1.0  0.3593798601816941  0.3685767070713715  0.06472037413865638  1.0000
  C   C47       1.0  0.7808518815258503  0.768406562700015  0.07428316459922892  1.0000
  C   C48       1.0  0.21914811762653935  0.23159343736090335  0.9257168352256309  1.0000
  C   C49       1.0  0.7520820329148263  0.6155214007226606  0.101980965970802  1.0000
  C   C50       1.0  0.24791796740549288  0.3844785993378711  0.8980190336054938  1.0000
  C   C51       1.0  0.6718624713069193  0.7840716594984455  0.9102077729620215  1.0000
  C   C52       1.0  0.32813752901339976  0.2159283405620861  0.08979222661427448  1.0000
  O   O1        1.0  0.2995952401815131  0.7246105704271164  0.1474304275363552  1.0000
  O   O2        1.0  0.7004047601388061  0.27538942963341523  0.8525695720399408  1.0000
  O   O3        1.0  0.36330151820642265  0.5406840281007407  0.3873808366611254  1.0000
  O   O4        1.0  0.6366984821138967  0.459315971959791  0.6126191629151706  1.0000
  O   O5        1.0  0.8067110678139606  0.4088492087182139  0.9849464237370329  1.0000
  O   O6        1.0  0.19328893250635865  0.5911507913423177  0.015053575839262947  1.0000
