data_image0
_chemical_formula_structural       H62C50N4O36
_chemical_formula_sum              "H62 C50 N4 O36"
_cell_length_a       9.304848422890688
_cell_length_b       10.255350361170503
_cell_length_c       15.508500168024407
_cell_angle_alpha    77.5439447879096
_cell_angle_beta     73.06073344336487
_cell_angle_gamma    77.50851976854403

_space_group_name_H-M_alt    "P 1"
_space_group_IT_number       1

loop_
  _space_group_symop_operation_xyz
  'x, y, z'

loop_
  _atom_site_type_symbol
  _atom_site_label
  _atom_site_symmetry_multiplicity
  _atom_site_fract_x
  _atom_site_fract_y
  _atom_site_fract_z
  _atom_site_occupancy
  H   H1        1.0  0.7394336524418674  0.03660894690463245  0.5288204891143193  1.0000
  H   H2        1.0  0.7442223231656764  0.9604654476590967  0.3198628496645813  1.0000
  H   H3        1.0  0.05691700601015426  0.9455714574082464  0.2640331999405903  1.0000
  H   H4        1.0  0.11756082660556959  0.8288995862867599  0.39918786400184925  1.0000
  H   H5        1.0  0.8848150256264972  0.6397538604592449  0.45080336372437546  1.0000
  H   H6        1.0  0.03351509726677368  0.6480160804680547  0.5554871366307188  1.0000
  H   H7        1.0  0.9829706609168163  0.8271332536001634  0.5453626896271683  1.0000
  H   H8        1.0  0.079044505487343  0.5088745657045736  0.3655922374537838  1.0000
  H   H9        1.0  0.9749313473478982  0.4041566377495101  0.4573287344894837  1.0000
  H   H10       1.0  0.832898015839833  0.6558192242794417  0.6728961963420856  1.0000
  H   H11       1.0  0.255400320856465  0.6549329799211765  0.34740761998548436  1.0000
  H   H12       1.0  0.0430389054107633  0.7256129812236453  0.22030945846791422  1.0000
  H   H13       1.0  0.06966003682914211  0.3204760396269319  0.6579216701882024  1.0000
  H   H14       1.0  0.18352550060687134  0.267361446346926  0.9155431153033947  1.0000
  H   H15       1.0  0.5371553290928056  0.28553512673522674  0.663566055475002  1.0000
  H   H16       1.0  0.29929326704251497  0.322086660409898  0.4399746593693536  1.0000
  H   H17       1.0  0.5782634396625022  0.28332001509871796  0.8061803485442468  1.0000
  H   H18       1.0  0.9412972920237482  0.28115981935096795  0.9043307206242736  1.0000
  H   H19       1.0  0.7871149473263666  0.26904786595245933  0.1930373014627555  1.0000
  H   H20       1.0  0.6689860195621936  0.2989128677697672  0.9391132359297664  1.0000
  H   H21       1.0  0.31611053440729986  0.31630770462185215  0.1907398154654922  1.0000
  H   H22       1.0  0.4141439119150043  0.30341885272783786  0.950575319408424  1.0000
  H   H23       1.0  0.9688204654293265  0.2602068227422106  0.05292832141868846  1.0000
  H   H24       1.0  0.5555498131644423  0.302687438761724  0.4086074274824009  1.0000
  H   H25       1.0  0.13095851395998734  0.6457095323588484  0.6871560210244477  1.0000
  H   H26       1.0  0.23777547989528308  0.6072212650145598  0.9450639216450715  1.0000
  H   H27       1.0  0.5967266729899928  0.6125406833735937  0.6950005493890006  1.0000
  H   H28       1.0  0.3627608123771839  0.6634864774132292  0.47046282627540326  1.0000
  H   H29       1.0  0.6380129324477374  0.5919026827654498  0.8395324490628828  1.0000
  H   H30       1.0  0.9945727661566383  0.623828004796146  0.9311646492657655  1.0000
  H   H31       1.0  0.8426603849111631  0.6086604224268803  0.22126570331466852  1.0000
  H   H32       1.0  0.7258688696686438  0.6181658522437126  0.9701726873923459  1.0000
  H   H33       1.0  0.3721915827113583  0.6472419589880606  0.21848328952076213  1.0000
  H   H34       1.0  0.6191408440047352  0.6143432198489956  0.438654324943467  1.0000
  H   H35       1.0  0.46996353862855444  0.6263403942290553  0.9824324451506854  1.0000
  H   H36       1.0  0.022051105166017597  0.604280429604316  0.07972525082012569  1.0000
  H   H37       1.0  0.4715893689312484  0.9645929292736075  0.612703348151473  1.0000
  H   H38       1.0  0.1136892289063599  0.954251980161085  0.8626665496008916  1.0000
  H   H39       1.0  0.0032961670687109675  0.019260815073859083  0.6030598385234587  1.0000
  H   H40       1.0  0.46685684329839994  0.9890272096199234  0.3930358041281353  1.0000
  H   H41       1.0  0.8697639462115252  0.9745718425176672  0.8485848736587656  1.0000
  H   H42       1.0  0.5150332714141702  0.942712351885379  0.7545828543779199  1.0000
  H   H43       1.0  0.24544532792759308  0.9993797815973753  0.1379881683207515  1.0000
  H   H44       1.0  0.5994197630857306  0.9556860070308791  0.8903489577442789  1.0000
  H   H45       1.0  0.7162272915220624  0.9575050649989724  0.1399368702129769  1.0000
  H   H46       1.0  0.25373263759492165  0.014949316796351763  0.3505666781189746  1.0000
  H   H47       1.0  0.8961768006372643  0.9370527569312012  0.000782534755519304  1.0000
  H   H48       1.0  0.3446737744486174  0.9670069607312816  0.901892266294565  1.0000
  H   H49       1.0  0.7589568432114677  0.3405149665125741  0.6858520561495448  1.0000
  H   H50       1.0  0.8177956085574098  0.2659348778828926  0.775369356034493  1.0000
  H   H51       1.0  0.24233465193736545  0.6071332500841602  0.10919355693937012  1.0000
  H   H52       1.0  0.1258445174318527  0.5137536044598803  0.1830121032742445  1.0000
  H   H53       1.0  0.9911068488665994  0.8863582948565605  0.1216360241242884  1.0000
  H   H54       1.0  0.1124352113317473  0.946332180722462  0.03146906993634234  1.0000
  H   H55       1.0  0.7561276679124415  0.9631021550540909  0.723706819846786  1.0000
  H   H56       1.0  0.7286870611726288  0.860565672113439  0.6678550822080666  1.0000
  H   H57       1.0  0.18869894981850038  0.2662573347373833  0.07218067355593438  1.0000
  H   H58       1.0  0.06150258072346714  0.2726363550798698  0.16389962272866737  1.0000
  H   H59       1.0  0.800257266585371  0.3184655834816967  0.5420159846355179  1.0000
  H   H60       1.0  0.7105137957249993  0.46290502721381  0.5685939656314123  1.0000
  H   H61       1.0  0.8929254797006247  0.5934437468041579  0.8143925575888317  1.0000
  H   H62       1.0  0.8444754783735259  0.46974120131946584  0.7903937490223653  1.0000
  C   C1        1.0  0.008567776152246416  0.35404659828788176  0.3316415587237809  1.0000
  C   C2        1.0  0.929431330600012  0.23698086274300598  0.3731065865264518  1.0000
  C   C3        1.0  0.8055954677798475  0.09296794645406753  0.46834407835017056  1.0000
  C   C4        1.0  0.8329846239054844  0.9320178430597872  0.3572270712651576  1.0000
  C   C5        1.0  0.9853690953579134  0.8681986038861805  0.30035767294089016  1.0000
  C   C6        1.0  0.053036921730651415  0.7720504844968966  0.37528363661486347  1.0000
  C   C7        1.0  0.9134382421339555  0.7368797046524403  0.4536954797834147  1.0000
  C   C8        1.0  0.9417603662299667  0.7336966796732742  0.5460605535461796  1.0000
  C   C9        1.0  0.3601422710005673  0.3147664623703726  0.551293510646696  1.0000
  C   C10       1.0  0.3080504330733166  0.3060438452593567  0.6517509192751153  1.0000
  C   C11       1.0  0.1534462184036622  0.3099647755119433  0.6964763043521527  1.0000
  C   C12       1.0  0.11044740746797596  0.29415147330625857  0.7917791690199072  1.0000
  C   C13       1.0  0.21779032411496246  0.27972156527157943  0.8413496969385448  1.0000
  C   C14       1.0  0.3713897229261093  0.2790148469269521  0.795429323553752  1.0000
  C   C15       1.0  0.41776466353384883  0.29038718223756416  0.7002817919666066  1.0000
  C   C16       1.0  0.495073721998596  0.30109602272247843  0.2990858149969423  1.0000
  C   C17       1.0  0.5471116777491922  0.295051633454043  0.2002348643030866  1.0000
  C   C18       1.0  0.7022861522116554  0.27998820418382947  0.15525854160330738  1.0000
  C   C19       1.0  0.7450985501079359  0.2819110300458348  0.06076893857772102  1.0000
  C   C20       1.0  0.6345984300336809  0.2965499883162585  0.01272220399152756  1.0000
  C   C21       1.0  0.48034353630870147  0.3078594399633689  0.059463585873136625  1.0000
  C   C22       1.0  0.435593017741245  0.30746233902240616  0.15354536805238492  1.0000
  C   C23       1.0  0.4226822556784591  0.631841477905496  0.5833063519811554  1.0000
  C   C24       1.0  0.3690035427194902  0.6275889536648266  0.6827975984503947  1.0000
  C   C25       1.0  0.21378361269624788  0.6353466542277048  0.7261477566193559  1.0000
  C   C26       1.0  0.16732176143274358  0.6277305630822533  0.8208671434395874  1.0000
  C   C27       1.0  0.2739313466038943  0.6145347934780345  0.8711059263636325  1.0000
  C   C28       1.0  0.4284251714818069  0.6096538069350601  0.8258218854169362  1.0000
  C   C29       1.0  0.4775370447555194  0.6149798824832992  0.7315366695007336  1.0000
  C   C30       1.0  0.5564991745229376  0.6320509873641987  0.32784146096201205  1.0000
  C   C31       1.0  0.6040741791803151  0.6269173477894544  0.2296586216768822  1.0000
  C   C32       1.0  0.7590111198508409  0.6136955473079869  0.18396715961635687  1.0000
  C   C33       1.0  0.8015271175975595  0.6115741936834039  0.0902755032278044  1.0000
  C   C34       1.0  0.6913051032775323  0.6199648386076204  0.043288006697243565  1.0000
  C   C35       1.0  0.5373176754995745  0.6319076124979007  0.09025039737010772  1.0000
  C   C36       1.0  0.4925848768098773  0.6364672131513988  0.18362241481185906  1.0000
  C   C37       1.0  0.29056145185755505  0.9993058213543713  0.49871285232434265  1.0000
  C   C38       1.0  0.2420563455495647  0.9913492310816022  0.5989655437271959  1.0000
  C   C39       1.0  0.35151527873332444  0.9713463831452174  0.6481150252514182  1.0000
  C   C40       1.0  0.3039252550025648  0.9593878591210759  0.7432878392173301  1.0000
  C   C41       1.0  0.14928122570441207  0.9653073442753706  0.788477022025135  1.0000
  C   C42       1.0  0.04117955913983155  0.9863189596310229  0.7381001645157049  1.0000
  C   C43       1.0  0.08663659377768262  0.0005130457470401878  0.6429182768976761  1.0000
  C   C44       1.0  0.4300027138458388  0.9869987340947861  0.2462803831613441  1.0000
  C   C45       1.0  0.47723071006758194  0.9764119420377178  0.1482352830667026  1.0000
  C   C46       1.0  0.3655824048161369  0.9831818707524246  0.10269519945014491  1.0000
  C   C47       1.0  0.4104192207277272  0.9743430903386964  0.009947309865746273  1.0000
  C   C48       1.0  0.5645304786834803  0.9610381656148157  0.9630225167126246  1.0000
  C   C49       1.0  0.6747147088571896  0.9548286499940314  0.009607002509175653  1.0000
  C   C50       1.0  0.632176977855946  0.9613500972283848  0.1029450304450574  1.0000
  N   N1        1.0  0.8531165932458662  0.20860012821476914  0.46298327011395063  1.0000
  N   N2        1.0  0.8539555804862093  0.05485312659370379  0.3848437699881305  1.0000
  N   N3        1.0  0.9313367243726833  0.14582741040369748  0.3232619830129771  1.0000
  N   N4        1.0  0.020267820744522026  0.42817696380440234  0.3887298436756933  1.0000
  O   O1        1.0  0.06118054388822079  0.3771256474434133  0.2460219006394423  1.0000
  O   O2        1.0  0.7859737136087893  0.8397550759533481  0.4372637823063153  1.0000
  O   O3        1.0  0.8074729729792776  0.7197356741541756  0.6194753117659728  1.0000
  O   O4        1.0  0.15098532675847098  0.6572012394145857  0.34162935279250833  1.0000
  O   O5        1.0  0.9569957113968475  0.7992897742619899  0.23808047847468425  1.0000
  O   O6        1.0  0.2521318708287428  0.3248818787721152  0.5095382533162655  1.0000
  O   O7        1.0  0.49783353136656067  0.3119640704051758  0.5099680876310821  1.0000
  O   O8        1.0  0.4721961754905783  0.26481674230576585  0.846423671392005  1.0000
  O   O9        1.0  0.9598451417719328  0.29274251147431424  0.8355637869983285  1.0000
  O   O10       1.0  0.3566550115489183  0.31195747153786396  0.34024703798739914  1.0000
  O   O11       1.0  0.3694431084495336  0.3216399901005088  0.01496878994816964  1.0000
  O   O12       1.0  0.8939288127969769  0.27238606086653916  0.012518652198483284  1.0000
  O   O13       1.0  0.6028558542587711  0.2961863759127783  0.33993973898300006  1.0000
  O   O14       1.0  0.3153210974311288  0.6692798424766454  0.538878651489089  1.0000
  O   O15       1.0  0.560721538014551  0.6018292871152361  0.5434155732787662  1.0000
  O   O16       1.0  0.5288313539907623  0.5993741739474105  0.8771069681215452  1.0000
  O   O17       1.0  0.015261652024298153  0.6341902539457701  0.8626348111702895  1.0000
  O   O18       1.0  0.6649009857307143  0.6124740060171875  0.36963829437582935  1.0000
  O   O19       1.0  0.4172844317053173  0.6541884327001448  0.3702228357382742  1.0000
  O   O20       1.0  0.42578020645768977  0.6409400021137436  0.0474781865300355  1.0000
  O   O21       1.0  0.9505978966969588  0.6016898515541395  0.041304384510571314  1.0000
  O   O22       1.0  0.4383540456156038  0.9949456375295094  0.46215709155325346  1.0000
  O   O23       1.0  0.19716934965348262  0.007394446124844635  0.4528846209480929  1.0000
  O   O24       1.0  0.8887405153681829  0.9946374710534858  0.7800550159346797  1.0000
  O   O25       1.0  0.40585150999848413  0.9404148337993415  0.7944409731193303  1.0000
  O   O26       1.0  0.2814339465850409  0.011941079480075856  0.2810602274304554  1.0000
  O   O27       1.0  0.5238159767631665  0.9727584068191405  0.29285907268442185  1.0000
  O   O28       1.0  0.8236086818463068  0.941910107359681  0.9607218972828395  1.0000
  O   O29       1.0  0.29950226169117883  0.9803316647421672  0.9670922583191465  1.0000
  O   O30       1.0  0.7302507848577808  0.32156006573161144  0.7551405897010212  1.0000
  O   O31       1.0  0.1338528758870632  0.6030154907698532  0.14109307578832525  1.0000
  O   O32       1.0  0.00560106375786421  0.9325521541171611  0.0574292882373689  1.0000
  O   O33       1.0  0.6826384754655344  0.9457536756110199  0.694236413627775  1.0000
  O   O34       1.0  0.08886611505850356  0.23873764777838533  0.1050703325163291  1.0000
  O   O35       1.0  0.7957493477627675  0.39026644732815935  0.5784681201323112  1.0000
  O   O36       1.0  0.8211110048972601  0.5691590072115041  0.7856522739999308  1.0000
