data_image0
_chemical_formula_structural       H80C90N8O24P8
_chemical_formula_sum              "H80 C90 N8 O24 P8"
_cell_length_a       16.712341660086476
_cell_length_b       16.712341660086476
_cell_length_c       7.210746210554416
_cell_angle_alpha    90.0
_cell_angle_beta     90.0
_cell_angle_gamma    90.0

_space_group_name_H-M_alt    "P 1"
_space_group_IT_number       1

loop_
  _space_group_symop_operation_xyz
  'x, y, z'

loop_
  _atom_site_type_symbol
  _atom_site_label
  _atom_site_symmetry_multiplicity
  _atom_site_fract_x
  _atom_site_fract_y
  _atom_site_fract_z
  _atom_site_occupancy
  H   H1        1.0  0.3668264852619261  0.9121116633066195  0.9474646646140539  1.0000
  H   H2        1.0  0.6331735142438307  0.08788833657891475  0.9474646646140539  1.0000
  H   H3        1.0  0.9121116634159108  0.6331735147328995  0.052535335309058614  1.0000
  H   H4        1.0  0.08788833668820613  0.36682648575099497  0.052535335309058614  1.0000
  H   H5        1.0  0.8668264858030533  0.412111663254561  0.4474646639590881  1.0000
  H   H6        1.0  0.13317351430106358  0.5878883366309733  0.4474646639590881  1.0000
  H   H7        1.0  0.4121116633638524  0.1331735141917722  0.5525353359640244  1.0000
  H   H8        1.0  0.5878883367402647  0.8668264856937621  0.5525353359640244  1.0000
  H   H9        1.0  0.20741433378626903  0.7858386297227721  0.6965940851791256  1.0000
  H   H10       1.0  0.7925856657194877  0.21416137016276213  0.6965940851791256  1.0000
  H   H11       1.0  0.7858386298320634  0.7925856662085566  0.303405914743987  1.0000
  H   H12       1.0  0.2141613702720535  0.20741433427533784  0.303405914743987  1.0000
  H   H13       1.0  0.7074143343273964  0.28583862967071366  0.19659408591097885  1.0000
  H   H14       1.0  0.29258566577672057  0.7141613702148206  0.19659408591097885  1.0000
  H   H15       1.0  0.28583862978000496  0.2925856656674293  0.8034059140121337  1.0000
  H   H16       1.0  0.714161370324112  0.707414334218105  0.8034059140121337  1.0000
  H   H17       1.0  0.05886383497582965  0.8425955773464974  0.4933731261811344  1.0000
  H   H18       1.0  0.9411361651282873  0.15740442313739705  0.4933731261811344  1.0000
  H   H19       1.0  0.8425955768574285  0.941136165018996  0.5066268737419782  1.0000
  H   H20       1.0  0.15740442264832827  0.05886383486653828  0.5066268737419782  1.0000
  H   H21       1.0  0.5588638349185967  0.34259557729443885  0.9933731268361001  1.0000
  H   H22       1.0  0.4411361651855202  0.6574044231894556  0.9933731268361001  1.0000
  H   H23       1.0  0.34259557680537006  0.4411361650762288  0.006626873087012441  1.0000
  H   H24       1.0  0.6574044227003868  0.5588638348093053  0.006626873087012441  1.0000
  H   H25       1.0  0.15548706005917576  0.783640439866895  0.2749214286724396  1.0000
  H   H26       1.0  0.8445129400449413  0.21635956061699943  0.2749214286724396  1.0000
  H   H27       1.0  0.7836404393778262  0.8445129399356498  0.725078571250673  1.0000
  H   H28       1.0  0.21635956012793062  0.15548705994988438  0.725078571250673  1.0000
  H   H29       1.0  0.6554870600019429  0.28364043981483655  0.7749214279405864  1.0000
  H   H30       1.0  0.34451294010217415  0.7163595606690578  0.7749214279405864  1.0000
  H   H31       1.0  0.2836404399241279  0.34451293999288274  0.2250785719825262  1.0000
  H   H32       1.0  0.7163595601799891  0.6554870598926515  0.2250785719825262  1.0000
  H   H33       1.0  0.17952020315538234  0.011433703520342878  0.0010077639384067686  1.0000
  H   H34       1.0  0.8204797963503745  0.9885662969635515  0.0010077639384067686  1.0000
  H   H35       1.0  0.01143370303127406  0.8204797968394432  0.9989922359847059  1.0000
  H   H36       1.0  0.9885662964744828  0.17952020364445118  0.9989922359847059  1.0000
  H   H37       1.0  0.6795202032074409  0.51143370346311  0.5010077632065535  1.0000
  H   H38       1.0  0.3204797968966761  0.48856629702078447  0.5010077632065535  1.0000
  H   H39       1.0  0.5114337029740411  0.32047979678738475  0.498992236716559  1.0000
  H   H40       1.0  0.48856629653171557  0.6795202030981494  0.498992236716559  1.0000
  H   H41       1.0  0.08024432526585148  0.06899455823161206  0.21355550521886993  1.0000
  H   H42       1.0  0.9197556742399053  0.9310054416539222  0.21355550521886993  1.0000
  H   H43       1.0  0.06899455834090343  0.9197556747289741  0.7864444960910617  1.0000
  H   H44       1.0  0.9310054417632135  0.0802443257549203  0.7864444960910617  1.0000
  H   H45       1.0  0.58024432531791  0.5689945581743793  0.7135555044870167  1.0000
  H   H46       1.0  0.4197556741878468  0.43100544171115507  0.7135555044870167  1.0000
  H   H47       1.0  0.5689945582836706  0.4197556746769156  0.28644449543609585  1.0000
  H   H48       1.0  0.4310054418204465  0.5802443258069788  0.28644449543609585  1.0000
  H   H49       1.0  0.21543160461857924  0.41957503934671403  0.024077962936189762  1.0000
  H   H50       1.0  0.7845683948871776  0.5804249611371805  0.024077962936189762  1.0000
  H   H51       1.0  0.4195750388576452  0.7845683953762465  0.9759220383737418  1.0000
  H   H52       1.0  0.5804249606481117  0.21543160510764808  0.9759220383737418  1.0000
  H   H53       1.0  0.7154316046706377  0.9195750392894811  0.5240779622043366  1.0000
  H   H54       1.0  0.28456839483511903  0.0804249605960531  0.5240779622043366  1.0000
  H   H55       1.0  0.9195750393987726  0.2845683953241879  0.475922037718776  1.0000
  H   H56       1.0  0.08042496070534448  0.7154316051597065  0.475922037718776  1.0000
  H   H57       1.0  0.2679409948707412  0.5602502485855805  0.9831599078640879  1.0000
  H   H58       1.0  0.7320590052333757  0.4397497512999537  0.9831599078640879  1.0000
  H   H59       1.0  0.5602502486948719  0.7320590051240844  0.01684009205902472  1.0000
  H   H60       1.0  0.43974975140924505  0.2679409947614499  0.01684009205902472  1.0000
  H   H61       1.0  0.7679409948135083  0.06025024853352204  0.48315990720912205  1.0000
  H   H62       1.0  0.23205900529060866  0.9397497513520121  0.48315990720912205  1.0000
  H   H63       1.0  0.06025024864281341  0.23205900518131728  0.5168400927139906  1.0000
  H   H64       1.0  0.9397497514613036  0.767940994704217  0.5168400927139906  1.0000
  H   H65       1.0  0.16839482153156674  0.6705831868228115  0.9353741198279414  1.0000
  H   H66       1.0  0.8316051785725502  0.3294168130627228  0.9353741198279414  1.0000
  H   H67       1.0  0.670583186932103  0.8316051784632589  0.06462588009517123  1.0000
  H   H68       1.0  0.32941681317201416  0.16839482142227538  0.06462588009517123  1.0000
  H   H69       1.0  0.6683948214743338  0.17058318677075296  0.4353741205597945  1.0000
  H   H70       1.0  0.3316051786297831  0.8294168131147813  0.4353741205597945  1.0000
  H   H71       1.0  0.17058318688004434  0.3316051785204917  0.564625879363318  1.0000
  H   H72       1.0  0.8294168132240727  0.6683948213650424  0.564625879363318  1.0000
  H   H73       1.0  0.022915336399566975  0.6380343369489833  0.939627699014393  1.0000
  H   H74       1.0  0.9770846637045499  0.36196566293655097  0.939627699014393  1.0000
  H   H75       1.0  0.6380343370582746  0.9770846635952586  0.06037230090871949  1.0000
  H   H76       1.0  0.3619656630458424  0.022915336290275597  0.06037230090871949  1.0000
  H   H77       1.0  0.5229153363423341  0.13803433749528496  0.43962769974624627  1.0000
  H   H78       1.0  0.47708466376178293  0.8619656629886094  0.43962769974624627  1.0000
  H   H79       1.0  0.13803433700621612  0.4770846636524915  0.5603723001768662  1.0000
  H   H80       1.0  0.8619656624995408  0.5229153362330428  0.5603723001768662  1.0000
  C   C1        1.0  0.0  0.0  0.5000000006549657  1.0000
  C   C2        1.0  0.5000000000520585  0.4999999999427671  0.0  1.0000
  C   C3        1.0  0.06172633032133497  0.960027970120151  0.370187649385425  1.0000
  C   C4        1.0  0.9382736697827821  0.03997202976538314  0.370187649385425  1.0000
  C   C5        1.0  0.9600279702294424  0.9382736696734907  0.6298123505376876  1.0000
  C   C6        1.0  0.03997202987467451  0.06172633021204359  0.6298123505376876  1.0000
  C   C7        1.0  0.5617263302641021  0.4600279700680926  0.8701876486535717  1.0000
  C   C8        1.0  0.4382736698400149  0.5399720298174416  0.8701876486535717  1.0000
  C   C9        1.0  0.460027970177384  0.4382736697307235  0.1298123512695408  1.0000
  C   C10       1.0  0.539972029926733  0.5617263301548107  0.1298123512695408  1.0000
  C   C11       1.0  0.08368773927993732  0.8795722238586092  0.38363603699585846  1.0000
  C   C12       1.0  0.9163122608241797  0.12042777662528519  0.38363603699585846  1.0000
  C   C13       1.0  0.8795722233695404  0.9163122607148884  0.6163639629272541  1.0000
  C   C14       1.0  0.12042777613621639  0.08368773917064594  0.6163639629272541  1.0000
  C   C15       1.0  0.5836877392227043  0.37957222380655076  0.8836360376508243  1.0000
  C   C16       1.0  0.41631226088141254  0.6204277766773437  0.8836360376508243  1.0000
  C   C17       1.0  0.37957222331748197  0.4163122607721212  0.11636396227228832  1.0000
  C   C18       1.0  0.6204277761882749  0.5836877391134131  0.11636396227228832  1.0000
  C   C19       1.0  0.1382542404014802  0.8460201387286811  0.2594929547320919  1.0000
  C   C20       1.0  0.8617457591042766  0.15397986115685316  0.2594929547320919  1.0000
  C   C21       1.0  0.8460201388379723  0.8617457595933453  0.7405070451910206  1.0000
  C   C22       1.0  0.15397986126614455  0.13825424089054902  0.7405070451910206  1.0000
  C   C23       1.0  0.6382542409426075  0.3460201386766225  0.7594929553870576  1.0000
  C   C24       1.0  0.36174575916150953  0.6539798612089117  0.7594929553870576  1.0000
  C   C25       1.0  0.3460201387859139  0.3617457590522181  0.2405070445360549  1.0000
  C   C26       1.0  0.6539798613182031  0.6382542408333161  0.2405070445360549  1.0000
  C   C27       1.0  0.17342257180826945  0.8927823690510907  0.1212762888146028  1.0000
  C   C28       1.0  0.8265774282958475  0.10721763083444359  0.1212762888146028  1.0000
  C   C29       1.0  0.892782369160382  0.8265774281865561  0.8787237111085097  1.0000
  C   C30       1.0  0.10721763094373496  0.1734225722973383  0.8787237111085097  1.0000
  C   C31       1.0  0.6734225717510366  0.3927823695973924  0.6212762880827496  1.0000
  C   C32       1.0  0.32657742775472026  0.607217630886502  0.6212762880827496  1.0000
  C   C33       1.0  0.39278236910832354  0.32657742824378905  0.378723711840363  1.0000
  C   C34       1.0  0.6072176309957935  0.6734225722401054  0.378723711840363  1.0000
  C   C35       1.0  0.1522197932234868  0.9737820743929045  0.10697905147055357  1.0000
  C   C36       1.0  0.8477802068806302  0.0262179254926296  0.10697905147055357  1.0000
  C   C37       1.0  0.9737820745021959  0.8477802067713389  0.893020948452559  1.0000
  C   C38       1.0  0.026217925601920974  0.15221979311419542  0.893020948452559  1.0000
  C   C39       1.0  0.6522197931662539  0.4737820743408462  0.6069790521255193  1.0000
  C   C40       1.0  0.34778020693786305  0.5262179255446882  0.6069790521255193  1.0000
  C   C41       1.0  0.47378207445013754  0.3477802068285717  0.39302094779759317  1.0000
  C   C42       1.0  0.5262179256539795  0.6522197930569625  0.39302094779759317  1.0000
  C   C43       1.0  0.09635794269676907  0.006262811756294551  0.22830801305839088  1.0000
  C   C44       1.0  0.9036420568089878  0.9937371881292396  0.22830801305839088  1.0000
  C   C45       1.0  0.006262811865585927  0.9036420572980566  0.7716919868647217  1.0000
  C   C46       1.0  0.993737188238531  0.09635794318583789  0.7716919868647217  1.0000
  C   C47       1.0  0.5963579427488275  0.5062628116990616  0.7283080137133566  1.0000
  C   C48       1.0  0.4036420567569292  0.49373718818647266  0.7283080137133566  1.0000
  C   C49       1.0  0.506262811808353  0.40364205724599805  0.2716919862097559  1.0000
  C   C50       1.0  0.49373718829576396  0.5963579432378964  0.2716919862097559  1.0000
  C   C51       1.0  0.042737649544378725  0.5117375909294142  0.9894088464183315  1.0000
  C   C52       1.0  0.9572623505597383  0.4882624089561201  0.9894088464183315  1.0000
  C   C53       1.0  0.5117375910387055  0.9572623504504469  0.010591153504781039  1.0000
  C   C54       1.0  0.48826240906541146  0.04273764943508735  0.010591153504781039  1.0000
  C   C55       1.0  0.5427376494871459  0.011737591475715835  0.48940884576336574  1.0000
  C   C56       1.0  0.4572623506169712  0.9882624090081786  0.48940884576336574  1.0000
  C   C57       1.0  0.011737590986647015  0.45726235050767977  0.5105911541597469  1.0000
  C   C58       1.0  0.9882624085191096  0.5427376493778545  0.5105911541597469  1.0000
  C   C59       1.0  0.17566541485154719  0.47077934676680333  0.007729249979485102  1.0000
  C   C60       1.0  0.8243345852525699  0.5292206531187309  0.007729249979485102  1.0000
  C   C61       1.0  0.4707793468760947  0.8243345851432785  0.9922707499436275  1.0000
  C   C62       1.0  0.5292206532280223  0.17566541474225578  0.9922707499436275  1.0000
  C   C63       1.0  0.6756654149036057  0.9707793467095703  0.5077292506344508  1.0000
  C   C64       1.0  0.3243345852005113  0.029220653175963805  0.5077292506344508  1.0000
  C   C65       1.0  0.9707793468188617  0.32433458509121993  0.49227074928866166  1.0000
  C   C66       1.0  0.02922065328525518  0.6756654147943142  0.49227074928866166  1.0000
  C   C67       1.0  0.20402473216213038  0.548123945521345  0.9816360156511132  1.0000
  C   C68       1.0  0.7959752679419866  0.4518760543641891  0.9816360156511132  1.0000
  C   C69       1.0  0.5481239456306365  0.7959752678326952  0.018363984271999322  1.0000
  C   C70       1.0  0.4518760544734805  0.2040247326511992  0.018363984271999322  1.0000
  C   C71       1.0  0.7040247321048975  0.048123945469286604  0.48163601499614744  1.0000
  C   C72       1.0  0.29597526740085933  0.9518760544162477  0.48163601499614744  1.0000
  C   C73       1.0  0.048123945578577985  0.2959752678899281  0.5183639849269651  1.0000
  C   C74       1.0  0.951876054525539  0.7040247325939663  0.5183639849269651  1.0000
  C   C75       1.0  0.14840014712216945  0.609244917128882  0.956724718712514  1.0000
  C   C76       1.0  0.8515998529819475  0.3907550827566524  0.956724718712514  1.0000
  C   C77       1.0  0.6092449172381733  0.851599852872656  0.04327528121059852  1.0000
  C   C78       1.0  0.3907550828659438  0.1484001470128781  0.04327528121059852  1.0000
  C   C79       1.0  0.6484001470649366  0.10924491707682336  0.4567247180575482  1.0000
  C   C80       1.0  0.35159985303918045  0.8907550828087109  0.4567247180575482  1.0000
  C   C81       1.0  0.10924491718611473  0.35159985292988905  0.5432752818655643  1.0000
  C   C82       1.0  0.8907550829180022  0.6484001469556452  0.5432752818655643  1.0000
  C   C83       1.0  0.06709144378956056  0.5910837051320994  0.959995758811731  1.0000
  C   C84       1.0  0.9329085557161962  0.40891629535179497  0.959995758811731  1.0000
  C   C85       1.0  0.5910837046430307  0.932908556205265  0.040004241111381594  1.0000
  C   C86       1.0  0.4089162948627261  0.06709144427862938  0.040004241111381594  1.0000
  C   C87       1.0  0.5670914443306879  0.09108370508004097  0.45999575954358424  1.0000
  C   C88       1.0  0.4329085557734291  0.9089162948054933  0.45999575954358424  1.0000
  C   C89       1.0  0.09108370518933236  0.43290855626249797  0.5400042403795284  1.0000
  C   C90       1.0  0.9089162949147847  0.5670914442213966  0.5400042403795284  1.0000
  N   N1        1.0  0.09751340380501211  0.4529603896203927  0.01243026136030219  1.0000
  N   N2        1.0  0.9024865962991049  0.5470396102651415  0.01243026136030219  1.0000
  N   N3        1.0  0.45296038972968405  0.9024865961898135  0.9875697399496294  1.0000
  N   N4        1.0  0.5470396103744329  0.09751340369572074  0.9875697399496294  1.0000
  N   N5        1.0  0.5975134038570706  0.9529603895631598  0.512430260628449  1.0000
  N   N6        1.0  0.4024865962470464  0.04703961032237444  0.512430260628449  1.0000
  N   N7        1.0  0.9529603896724511  0.402486596137755  0.4875697392946636  1.0000
  N   N8        1.0  0.047039610431665824  0.5975134037477793  0.4875697392946636  1.0000
  O   O1        1.0  0.28342679905402884  0.7750304136263867  0.046411770741584396  1.0000
  O   O2        1.0  0.7165732010500881  0.22496958625914748  0.046411770741584396  1.0000
  O   O3        1.0  0.7750304137356782  0.7165732009407968  0.9535882291815282  1.0000
  O   O4        1.0  0.22496958636843886  0.2834267989447375  0.9535882291815282  1.0000
  O   O5        1.0  0.7834267989967959  0.2750304135743282  0.5464117713965502  1.0000
  O   O6        1.0  0.21657320110732103  0.724969586311206  0.5464117713965502  1.0000
  O   O7        1.0  0.27503041368361963  0.21657320099802965  0.4535882285265624  1.0000
  O   O8        1.0  0.7249695864204974  0.7834267988875047  0.4535882285265624  1.0000
  O   O9        1.0  0.30418715671743785  0.9154537706695756  0.9090534028788133  1.0000
  O   O10       1.0  0.6958128433866791  0.08454622921595874  0.9090534028788133  1.0000
  O   O11       1.0  0.9154537707788669  0.6958128432773878  0.09094659704429922  1.0000
  O   O12       1.0  0.08454622932525012  0.3041871566081465  0.09094659704429922  1.0000
  O   O13       1.0  0.804187156660205  0.41545377061751704  0.4090534022238475  1.0000
  O   O14       1.0  0.19581284344391206  0.5845462292680172  0.4090534022238475  1.0000
  O   O15       1.0  0.4154537707268084  0.19581284333462068  0.5909465976992649  1.0000
  O   O16       1.0  0.5845462293773086  0.8041871565509136  0.5909465976992649  1.0000
  O   O17       1.0  0.19089825868832863  0.8294046640247777  0.7901747327703986  1.0000
  O   O18       1.0  0.8091017408174281  0.1705953358607564  0.7901747327703986  1.0000
  O   O19       1.0  0.8294046641340692  0.809101741306497  0.20982526715271393  1.0000
  O   O20       1.0  0.17059533597004778  0.19089825917739747  0.20982526715271393  1.0000
  O   O21       1.0  0.6908982586310958  0.32940466397271934  0.2901747335022518  1.0000
  O   O22       1.0  0.309101740874661  0.6705953359128148  0.2901747335022518  1.0000
  O   O23       1.0  0.3294046640820107  0.3091017413637298  0.7098252664208606  1.0000
  O   O24       1.0  0.6705953360221063  0.6908982591201646  0.7098252664208606  1.0000
  P   P1        1.0  0.2439041969375287  0.8480618849124922  0.9650377973107124  1.0000
  P   P2        1.0  0.7560958031665882  0.15193811497304208  0.9650377973107124  1.0000
  P   P3        1.0  0.8480618850217836  0.7560958030572968  0.03496220261240014  1.0000
  P   P4        1.0  0.15193811508233346  0.24390419682823733  0.03496220261240014  1.0000
  P   P5        1.0  0.7439041968802959  0.34806188486043366  0.4650377980425656  1.0000
  P   P6        1.0  0.25609580322382114  0.6519381150251006  0.4650377980425656  1.0000
  P   P7        1.0  0.34806188496972507  0.2560958031145298  0.5349622018805469  1.0000
  P   P8        1.0  0.6519381151343919  0.7439041967710045  0.5349622018805469  1.0000
