data_image0
_chemical_formula_structural       H16C14N4O2F6P
_chemical_formula_sum              "H16 C14 N4 O2 F6 P1"
_cell_length_a       7.298388120936659
_cell_length_b       7.013951314696716
_cell_length_c       9.472407594046228
_cell_angle_alpha    75.32824587387937
_cell_angle_beta     73.49518648605644
_cell_angle_gamma    65.8338559875057

_space_group_name_H-M_alt    "P 1"
_space_group_IT_number       1

loop_
  _space_group_symop_operation_xyz
  'x, y, z'

loop_
  _atom_site_type_symbol
  _atom_site_label
  _atom_site_symmetry_multiplicity
  _atom_site_fract_x
  _atom_site_fract_y
  _atom_site_fract_z
  _atom_site_occupancy
  H   H1        1.0  0.41962917191252436  0.2623408954770256  0.5843515146018382  1.0000
  H   H2        1.0  0.5803708281898828  0.7376591037608948  0.4156484857561402  1.0000
  H   H3        1.0  0.04146669733076343  0.22614931008404224  0.37169199190618096  1.0000
  H   H4        1.0  0.9585333027716437  0.7738506891538782  0.6283080084517975  1.0000
  H   H5        1.0  0.07060765896786636  0.2950375009435986  0.6079457597782467  1.0000
  H   H6        1.0  0.9293923415350648  0.7049624984571751  0.3920542394674206  1.0000
  H   H7        1.0  0.7637242153485695  0.3681155359659109  0.8169247972611268  1.0000
  H   H8        1.0  0.23627578455383993  0.6318844650086547  0.18307520192420884  1.0000
  H   H9        1.0  0.838456929056266  0.19299144383438357  0.24264416320806345  1.0000
  H   H10       1.0  0.1615430704456193  0.807008556977329  0.7573558370895832  1.0000
  H   H11       1.0  0.6863489469780456  0.9393141210767625  0.14927801933668988  1.0000
  H   H12       1.0  0.31365105312436126  0.06068587816115809  0.8507219810212887  1.0000
  H   H13       1.0  0.701475329629013  0.18922367918098237  0.06044217561746432  1.0000
  H   H14       1.0  0.29852466987287224  0.8107763216307301  0.9395578246801825  1.0000
  H   H15       1.0  0.461901285758511  0.15208545642514598  0.10434687252383507  1.0000
  H   H16       1.0  0.5380987143438961  0.8479145428127746  0.8956531278341435  1.0000
  C   C1        1.0  0.5625005341666739  0.2750677085442704  0.586002750669378  1.0000
  C   C2        1.0  0.43749946533521145  0.7249322922674422  0.41399724962826884  1.0000
  C   C3        1.0  0.7245852476188864  0.24394186915592625  0.4575944936960525  1.0000
  C   C4        1.0  0.27541475188299896  0.7560581316557863  0.5424055066015943  1.0000
  C   C5        1.0  0.913218442687495  0.24757964869496205  0.46718361897726757  1.0000
  C   C6        1.0  0.08678155781543624  0.7524203507058116  0.5328163802683998  1.0000
  C   C7        1.0  0.9304061054408612  0.28407011040104063  0.5986365337930047  1.0000
  C   C8        1.0  0.06959389466154602  0.7159298888368798  0.4013634665649738  1.0000
  C   C9        1.0  0.7596522247352593  0.32050780000564294  0.7171653821472256  1.0000
  C   C10       1.0  0.2403477753671477  0.6794921992322778  0.2828346182107529  1.0000
  C   C11       1.0  0.5526605512063335  0.1730036088256092  0.2926560202222954  1.0000
  C   C12       1.0  0.4473394492965979  0.8269963905751645  0.7073439790233718  1.0000
  C   C13       1.0  0.6034399500087838  0.11126539915217781  0.1418846384727445  1.0000
  C   C14       1.0  0.3965600500936234  0.8887346000857427  0.858115361885234  1.0000
  N   N1        1.0  0.5824575268275275  0.31158391896909643  0.7107742833821855  1.0000
  N   N2        1.0  0.4175424732748795  0.6884160802688241  0.289225716975793  1.0000
  N   N3        1.0  0.7119827348644338  0.203500487088185  0.32684878217375424  1.0000
  N   N4        1.0  0.28801726523797344  0.7964995121497355  0.6731512181842243  1.0000
  O   O1        1.0  0.3890025723372728  0.18898620770407687  0.3819425443609907  1.0000
  O   O2        1.0  0.6109974271646125  0.8110137931076358  0.6180574559366561  1.0000
  F   F1        1.0  0.08624347070626316  0.4174928253757761  0.8385476556765494  1.0000
  F   F2        1.0  0.9137565287956222  0.5825071754359366  0.1614523446210974  1.0000
  F   F3        1.0  0.9470837312274721  0.7479848783064069  0.9141612653516795  1.0000
  F   F4        1.0  0.0529162692754591  0.2520151210943668  0.08583873389398777  1.0000
  F   F5        1.0  0.7714162087352978  0.5156534413073876  0.9991319972500641  1.0000
  F   F6        1.0  0.22858379136710916  0.4843465579305329  0.0008680031079145019  1.0000
  P   P1        1.0  3.3681037197653607e-10  0.4999999992455367  2.9401030386946244e-10  1.0000
