data_image0
_chemical_formula_structural       H24C24N24S12
_chemical_formula_sum              "H24 C24 N24 S12"
_cell_length_a       9.551867256411734
_cell_length_b       16.44402028506283
_cell_length_c       7.914042398011258
_cell_angle_alpha    90.0
_cell_angle_beta     125.84155883217448
_cell_angle_gamma    90.0

_space_group_name_H-M_alt    "P 1"
_space_group_IT_number       1

loop_
  _space_group_symop_operation_xyz
  'x, y, z'

loop_
  _atom_site_type_symbol
  _atom_site_label
  _atom_site_symmetry_multiplicity
  _atom_site_fract_x
  _atom_site_fract_y
  _atom_site_fract_z
  _atom_site_occupancy
  H   H1        1.0  0.4999990000339893  0.3956565004915488  0.750000000553389  1.0000
  H   H2        1.0  0.9999989994763072  0.8956565003376075  0.7500000001035523  1.0000
  H   H3        1.0  0.5000009996446949  0.6043434992005685  0.25000000024938074  1.0000
  H   H4        1.0  1.0002023769460531e-06  0.10434349935450984  0.2500000006992175  1.0000
  H   H5        1.0  0.2805954473627837  0.6135797484490545  0.745261091433558  1.0000
  H   H6        1.0  0.7194045527109743  0.6135797484490545  0.7547389095872697  1.0000
  H   H7        1.0  0.7805954468051015  0.11357974860299583  0.7452610909837211  1.0000
  H   H8        1.0  0.21940455197719305  0.11357974860299583  0.7547389091282127  1.0000
  H   H9        1.0  0.7194045523159004  0.3864202512430628  0.25473890936921184  1.0000
  H   H10       1.0  0.28059544696380917  0.3864202512430628  0.24526108994917242  1.0000
  H   H11       1.0  0.21940455287358254  0.8864202510891215  0.2547389098190487  1.0000
  H   H12       1.0  0.7805954477014911  0.8864202510891215  0.24526109167455706  1.0000
  H   H13       1.0  0.2888800153702109  0.2798778735502159  0.764223831305615  1.0000
  H   H14       1.0  0.7111199846996465  0.2798778735502159  0.735776168448885  1.0000
  H   H15       1.0  0.7888800161039922  0.7798778740043983  0.764223831764672  1.0000
  H   H16       1.0  0.2111199839658652  0.7798778740043983  0.735776167989828  1.0000
  H   H17       1.0  0.7111199843045727  0.7201221261419014  0.23577616823082723  1.0000
  H   H18       1.0  0.28888001626660037  0.7201221261419014  0.2642238319964509  1.0000
  H   H19       1.0  0.21111998357079137  0.2201221262958427  0.23577616777177018  1.0000
  H   H20       1.0  0.7888800157089183  0.2201221262958427  0.26422383154661416  1.0000
  H   H21       1.0  0.4999990000339893  0.060384173260961536  0.750000000553389  1.0000
  H   H22       1.0  0.9999989994763072  0.5603841731070203  0.7500000001035523  1.0000
  H   H23       1.0  0.5000009996446949  0.9396158270392796  0.25000000024938074  1.0000
  H   H24       1.0  1.0002023769460531e-06  0.4396158271932209  0.2500000006992175  1.0000
  C   C1        1.0  0.370499809847527  0.4985031110333904  0.7449399791070223  1.0000
  C   C2        1.0  0.6295001902223304  0.4985031110333904  0.7550600206474778  1.0000
  C   C3        1.0  0.8704998092898449  0.9985031114875729  0.7449399786571855  1.0000
  C   C4        1.0  0.1295001907800124  0.9985031114875729  0.7550600210973144  1.0000
  C   C5        1.0  0.6295001898272565  0.5014968886587269  0.2550600204294199  1.0000
  C   C6        1.0  0.3704998094524532  0.5014968886587269  0.24493997888896446  1.0000
  C   C7        1.0  0.1295001903849386  0.0014968888126682307  0.2550600208792566  1.0000
  C   C8        1.0  0.8704998101862345  0.0014968888126682307  0.24493997934802145  1.0000
  C   C9        1.0  0.5000000000368789  0.6263758649918647  0.7500000005104138  1.0000
  C   C10       1.0  5.94561051967757e-10  0.1263758651458061  0.7500000009602505  1.0000
  C   C11       1.0  0.4999999996418052  0.37362413530837635  0.25000000029235603  1.0000
  C   C12       1.0  1.994872289859856e-10  0.8736241351544349  0.25000000074219275  1.0000
  C   C13       1.0  0.3848349655597225  0.2466023022170278  0.7577113514408205  1.0000
  C   C14       1.0  0.6151650332186714  0.2466023022170278  0.7422886474047857  1.0000
  C   C15       1.0  0.8848349662935039  0.7466023026712103  0.7577113518998777  1.0000
  C   C16       1.0  0.1151650337763535  0.7466023026712103  0.7422886478546223  1.0000
  C   C17       1.0  0.615165034115061  0.7533976974750894  0.2422886480956216  1.0000
  C   C18       1.0  0.3848349664561121  0.7533976974750894  0.2577113521316565  1.0000
  C   C19       1.0  0.11516503338127969  0.2533976976290308  0.24228864763656463  1.0000
  C   C20       1.0  0.88483496589843  0.2533976976290308  0.25771135168181974  1.0000
  C   C21       1.0  0.5000000000368789  0.12681121488850272  0.7500000005104138  1.0000
  C   C22       1.0  5.94561051967757e-10  0.6268112147345614  0.7500000009602505  1.0000
  C   C23       1.0  0.4999999996418052  0.8731887854117384  0.25000000029235603  1.0000
  C   C24       1.0  1.994872289859856e-10  0.373188784957556  0.25000000074219275  1.0000
  N   N1        1.0  0.5000000000368789  0.4599017392887572  0.7500000005104138  1.0000
  N   N2        1.0  5.94561051967757e-10  0.9599017391348158  0.7500000009602505  1.0000
  N   N3        1.0  0.4999999996418052  0.5400982610114838  0.25000000029235603  1.0000
  N   N4        1.0  1.994872289859856e-10  0.04009826116542525  0.25000000074219275  1.0000
  N   N5        1.0  0.37924171432139103  0.5817278557293782  0.7507419537705508  1.0000
  N   N6        1.0  0.620758285752367  0.5817278557293782  0.749258047250277  1.0000
  N   N7        1.0  0.8792417137637091  0.08172785588331966  0.7507419533207139  1.0000
  N   N8        1.0  0.12075828631004902  0.08172785588331966  0.7492580477001137  1.0000
  N   N9        1.0  0.6207582866487564  0.418272143962739  0.24925804794111286  1.0000
  N   N10       1.0  0.37924171392631717  0.418272143962739  0.25074195355249285  1.0000
  N   N11       1.0  0.1207582859149752  0.9182721438087976  0.24925804748205588  1.0000
  N   N12       1.0  0.8792417133686352  0.9182721438087976  0.2507419531026561  1.0000
  N   N13       1.0  0.5000000000368789  0.2898691990990686  0.7500000005104138  1.0000
  N   N14       1.0  5.94561051967757e-10  0.7898691989451273  0.7500000009602505  1.0000
  N   N15       1.0  0.4999999996418052  0.7101308012011726  0.25000000029235603  1.0000
  N   N16       1.0  1.994872289859856e-10  0.21013080074699006  0.25000000074219275  1.0000
  N   N17       1.0  0.37842499664583706  0.16529940384889366  0.7545707861356584  1.0000
  N   N18       1.0  0.6215750034240204  0.16529940384889366  0.7454292136188415  1.0000
  N   N19       1.0  0.878424996088155  0.6652994036949522  0.7545707856858218  1.0000
  N   N20       1.0  0.12157500398170235  0.6652994036949522  0.7454292140686782  1.0000
  N   N21       1.0  0.6215750030289465  0.8347005958432235  0.2454292134007837  1.0000
  N   N22       1.0  0.3784249962507632  0.8347005958432235  0.2545707859176007  1.0000
  N   N23       1.0  0.12157500358662851  0.334700595997165  0.24542921385062044  1.0000
  N   N24       1.0  0.8784249969845445  0.334700595997165  0.2545707863766576  1.0000
  S   S1        1.0  0.21508770686065057  0.44797759929130704  0.7340774838756986  1.0000
  S   S2        1.0  0.7849122932092066  0.44797759929130704  0.7659225158788013  1.0000
  S   S3        1.0  0.7150877063029685  0.9479775997454895  0.7340774834258619  1.0000
  S   S4        1.0  0.2849122924754255  0.9479775997454895  0.7659225154197443  1.0000
  S   S5        1.0  0.7849122928141329  0.5520224004008103  0.26592251566074343  1.0000
  S   S6        1.0  0.21508770646557676  0.5520224004008103  0.2340774836576408  1.0000
  S   S7        1.0  0.284912293371815  0.05202240055475165  0.2659225161105802  1.0000
  S   S8        1.0  0.715087707199358  0.05202240055475165  0.2340774841166978  1.0000
  S   S9        1.0  0.5000000000368789  0.7273697096363257  0.7500000005104138  1.0000
  S   S10       1.0  5.94561051967757e-10  0.22736970979026705  0.7500000009602505  1.0000
  S   S11       1.0  0.4999999996418052  0.2726302900557916  0.25000000029235603  1.0000
  S   S12       1.0  1.994872289859856e-10  0.7726302899018502  0.25000000074219275  1.0000
