data_image0
_chemical_formula_structural       H60C72N20O4S12
_chemical_formula_sum              "H60 C72 N20 O4 S12"
_cell_length_a       4.749167740324339
_cell_length_b       23.520409035540556
_cell_length_c       15.409509588849293
_cell_angle_alpha    90.0
_cell_angle_beta     93.63798226124528
_cell_angle_gamma    90.0

_space_group_name_H-M_alt    "P 1"
_space_group_IT_number       1

loop_
  _space_group_symop_operation_xyz
  'x, y, z'

loop_
  _atom_site_type_symbol
  _atom_site_label
  _atom_site_symmetry_multiplicity
  _atom_site_fract_x
  _atom_site_fract_y
  _atom_site_fract_z
  _atom_site_occupancy
  H   H1        1.0  0.18876743673381072  0.4592073634297565  0.49938582198149833  1.0000
  H   H2        1.0  0.3112325635031668  0.9592073635245558  0.000614177959378845  1.0000
  H   H3        1.0  0.8112325637401443  0.5407926363346798  0.5006141779002561  1.0000
  H   H4        1.0  0.6887674369707882  0.040792636665042986  0.9993858219223756  1.0000
  H   H5        1.0  0.7491085289259797  0.3461501697397197  0.6237347045243139  1.0000
  H   H6        1.0  0.7508914717929365  0.8461501698345191  0.8762652959474192  1.0000
  H   H7        1.0  0.2508914715559591  0.6538498300247165  0.376265296006542  1.0000
  H   H8        1.0  0.24910852868101835  0.15384983035507976  0.12373470393433524  1.0000
  H   H9        1.0  0.2559168848065138  0.4523195712253265  0.7691327126512871  1.0000
  H   H10       1.0  0.24408311602941915  0.9523195713201259  0.7308672876014488  1.0000
  H   H11       1.0  0.7440831156754248  0.5476804289642724  0.23086728787956867  1.0000
  H   H12       1.0  0.7559168844445358  0.047680428869472935  0.2691327122803056  1.0000
  H   H13       1.0  0.4791232597689053  0.5811132905616951  0.7427888396611434  1.0000
  H   H14       1.0  0.020876738949175265  0.08111329046689573  0.7572111599036866  1.0000
  H   H15       1.0  0.5208767407050496  0.41888670962790375  0.257211160220611  1.0000
  H   H16       1.0  0.9791232594149111  0.9188867092975403  0.24278883993926328  1.0000
  H   H17       1.0  0.8087142348534331  0.6428885589171253  0.6577734508989725  1.0000
  H   H18       1.0  0.6912857658574993  0.1428885588223258  0.8422265489236591  1.0000
  H   H19       1.0  0.19128576562052188  0.35711144127247363  0.3422265489827819  1.0000
  H   H20       1.0  0.3087142346164556  0.8571114409421104  0.15777345095809533  1.0000
  H   H21       1.0  0.1745612111494792  0.7183754361783647  0.6589481431457552  1.0000
  H   H22       1.0  0.3254387896864538  0.21837543608356536  0.8410518571069807  1.0000
  H   H23       1.0  0.8254387893324596  0.2816245640112341  0.34105185738510063  1.0000
  H   H24       1.0  0.6745612107875011  0.7816245636808709  0.15894814277477368  1.0000
  H   H25       1.0  0.4914233649237822  0.7893524905092413  0.7457779948667692  1.0000
  H   H26       1.0  0.008576633794298344  0.28935249041444183  0.7542220046980608  1.0000
  H   H27       1.0  0.5085766355501727  0.2106475096803576  0.25422200501498515  1.0000
  H   H28       1.0  0.9914233645697879  0.710647509775157  0.24577799514488913  1.0000
  H   H29       1.0  0.47641132597695723  0.8024387199848813  0.01218882084288075  1.0000
  H   H30       1.0  0.023588674260020277  0.3024387198900818  0.4878111790979965  1.0000
  H   H31       1.0  0.5235886744969978  0.1975612802047176  0.9878111790388738  1.0000
  H   H32       1.0  0.9764113241120498  0.6975612802995169  0.5121888213940549  1.0000
  H   H33       1.0  0.15006930297799193  0.7391289519553399  0.09813818556291226  1.0000
  H   H34       1.0  0.34993069725898557  0.2391289522857032  0.4018618143779649  1.0000
  H   H35       1.0  0.8499306953860944  0.26087104780909626  0.9018618142800378  1.0000
  H   H36       1.0  0.6500693032229533  0.7608710479038957  0.5981381861528909  1.0000
  H   H37       1.0  0.7880325844207969  0.6626731323612709  0.09770786087094868  1.0000
  H   H38       1.0  0.7119674156991639  0.16267313226647148  0.4022921392889256  1.0000
  H   H39       1.0  0.21196741605315808  0.3373268674031653  0.9022921390108057  1.0000
  H   H40       1.0  0.288032584782775  0.8373268674979647  0.5977078612419303  1.0000
  H   H41       1.0  0.480810346198584  0.5909285756467104  0.011993016762403469  1.0000
  H   H42       1.0  0.019189654038393466  0.09092857597707368  0.48800698317847374  1.0000
  H   H43       1.0  0.519189654275371  0.4090714241177258  0.988006983119351  1.0000
  H   H44       1.0  0.9808103464355615  0.9090714242125252  0.5119930167032807  1.0000
  H   H45       1.0  0.3123007592930174  0.5208731166829573  0.8677680043306863  1.0000
  H   H46       1.0  0.18769923943304692  0.020873117013320553  0.6322319958832452  1.0000
  H   H47       1.0  0.6876992411809374  0.4791268830814789  0.13223199555106804  1.0000
  H   H48       1.0  0.8123007589390233  0.9791268831762783  0.3677680046088062  1.0000
  H   H49       1.0  0.9219452750572223  0.5203783442501133  0.9325247581846879  1.0000
  H   H50       1.0  0.5780547256537101  0.020378344155313893  0.5674752416379436  1.0000
  H   H51       1.0  0.07805472541673261  0.47962165551432284  0.06747524169706651  1.0000
  H   H52       1.0  0.4219452748202449  0.9796216556091222  0.4325247582438107  1.0000
  H   H53       1.0  0.8927238670192347  0.44501818757419587  0.9209834091297185  1.0000
  H   H54       1.0  0.6072761336916979  0.9450181876689954  0.5790165906929131  1.0000
  H   H55       1.0  0.10727613345472034  0.5549818126154029  0.07901659075203586  1.0000
  H   H56       1.0  0.3927238667822571  0.054981812520603524  0.42098340918884136  1.0000
  H   H57       1.0  0.7985619566906943  0.4899576534824132  0.8308872289901927  1.0000
  H   H58       1.0  0.7014380419103694  0.9899576535772125  0.6691127707936344  1.0000
  H   H59       1.0  0.201438041673392  0.5100423467071857  0.1691127708527573  1.0000
  H   H60       1.0  0.29856195645371686  0.010042346612386264  0.33088722904931545  1.0000
  C   C1        1.0  0.18029128757258475  0.46056243042505574  0.6338316051907098  1.0000
  C   C2        1.0  0.3197087111534796  0.9605624305198552  0.8661683950232216  1.0000
  C   C3        1.0  0.8197087129093541  0.5394375693393805  0.36616839534014595  1.0000
  C   C4        1.0  0.6802912872106067  0.039437569669743704  0.13383160481972836  1.0000
  C   C5        1.0  0.48646266727768767  0.4020262175590469  0.5496958427666594  1.0000
  C   C6        1.0  0.013537333558245369  0.9020262176538463  0.9503041574860767  1.0000
  C   C7        1.0  0.5135373331962674  0.5979737822053893  0.4503041571150951  1.0000
  C   C8        1.0  0.9864626669236934  0.09797378253575256  0.049695843044779205  1.0000
  C   C9        1.0  0.5013279403163473  0.3932327718461141  0.7065498649808163  1.0000
  C   C10       1.0  0.9986720582847165  0.8932327719409134  0.7934501348030109  1.0000
  C   C11       1.0  0.49867206015760773  0.6067672283434848  0.2934501349009382  1.0000
  C   C12       1.0  0.0013279400793697457  0.10676722824868534  0.20654986503993905  1.0000
  C   C13       1.0  0.5649670975769675  0.6021888772681577  0.801868877081709  1.0000
  C   C14       1.0  0.9350329010240962  0.10218887717335827  0.6981311227021182  1.0000
  C   C15       1.0  0.43503290078711876  0.39781112292144116  0.19813112276124095  1.0000
  C   C16       1.0  0.06496709733999007  0.897811122591078  0.3018688771408318  1.0000
  C   C17       1.0  0.8855308380095621  0.6630605282601361  0.7185225476146473  1.0000
  C   C18       1.0  0.6144691627013703  0.16306052816533667  0.7814774522079844  1.0000
  C   C19       1.0  0.11446916246439286  0.3369394719294628  0.28147745226710713  1.0000
  C   C20       1.0  0.3855308377725846  0.8369394720242622  0.2185225476737701  1.0000
  C   C21       1.0  0.08629584239600106  0.7047534643191227  0.7192005603860679  1.0000
  C   C22       1.0  0.41370415632207946  0.2047534646494858  0.7807994391787622  1.0000
  C   C23       1.0  0.9137041559680852  0.29524653544531365  0.28079943945688207  1.0000
  C   C24       1.0  0.5862958441518755  0.795246535540113  0.21920056070299226  1.0000
  C   C25       1.0  0.39648338714023895  0.7734212208007173  0.8037209329505973  1.0000
  C   C26       1.0  0.1035166136956941  0.2734212211310806  0.6962790673021386  1.0000
  C   C27       1.0  0.6035166133337161  0.2265787789637189  0.1962790669311571  1.0000
  C   C28       1.0  0.8964833867862447  0.7265787790585183  0.3037209332287172  1.0000
  C   C29       1.0  0.3886635531154725  0.78074922558752  0.9539560607445241  1.0000
  C   C30       1.0  0.11133644772046052  0.28074922549272063  0.5460439395082118  1.0000
  C   C31       1.0  0.6113364473584825  0.21925077460207879  0.04604393913723033  1.0000
  C   C32       1.0  0.8886635527534945  0.7192507746968783  0.4539560603735426  1.0000
  C   C33       1.0  0.06972993177937753  0.7196148899632012  0.03730607587565676  1.0000
  C   C34       1.0  0.4302700684575999  0.2196148898684017  0.4626939240652204  1.0000
  C   C35       1.0  0.9302700686945775  0.2803851102263977  0.9626939240060977  1.0000
  C   C36       1.0  0.5697299320163549  0.7803851098960345  0.5373060758165339  1.0000
  C   C37       1.0  0.8711848685755695  0.677449365184214  0.03721379513331985  1.0000
  C   C38       1.0  0.6288151294265386  0.1774493650894145  0.4627862043386486  1.0000
  C   C39       1.0  0.12881512978851675  0.3225506350053849  0.9627862047096302  1.0000
  C   C40       1.0  0.37118486893754765  0.8225506346750218  0.5372137955043014  1.0000
  C   C41       1.0  0.5625322625020129  0.6079347390767593  0.9526098526830153  1.0000
  C   C42       1.0  0.9374677382089195  0.10793473898195985  0.5473901471396163  1.0000
  C   C43       1.0  0.43746773797194205  0.39206526111283957  0.04739014719873914  1.0000
  C   C44       1.0  0.06253226226503542  0.892065261207639  0.45260985274213805  1.0000
  C   C45       1.0  0.7718776248328286  0.6446255304101919  0.7978927144309056  1.0000
  C   C46       1.0  0.7281223758781037  0.14462553031539238  0.7021072853917262  1.0000
  C   C47       1.0  0.22812237564112628  0.35537446977940707  0.20210728545084894  1.0000
  C   C48       1.0  0.2718776245958512  0.8553744698742065  0.29789271449002824  1.0000
  C   C49       1.0  0.1891316736198223  0.730926734055622  0.7989714228270458  1.0000
  C   C50       1.0  0.31086832509825824  0.2309267339608225  0.7010285767377843  1.0000
  C   C51       1.0  0.8108683247442641  0.2690732661339769  0.20102857701590415  1.0000
  C   C52       1.0  0.6891316753756968  0.7690732662287764  0.2989714231439702  1.0000
  C   C53       1.0  0.18083518091594591  0.738570693806846  0.9579666741583424  1.0000
  C   C54       1.0  0.31916481991998713  0.23857069413720927  0.5420333260943936  1.0000
  C   C55       1.0  0.8191648195580089  0.2614293059575901  0.04203332572341208  1.0000
  C   C56       1.0  0.6808351805619517  0.7614293060523896  0.4579666744364623  1.0000
  C   C57       1.0  0.7656789217698886  0.6514857899301765  0.9573257933426236  1.0000
  C   C58       1.0  0.7343210789410437  0.15148578983537705  0.542674206480008  1.0000
  C   C59       1.0  0.23432107870406632  0.3485142098342597  0.042674206539130795  1.0000
  C   C60       1.0  0.2656789215329111  0.8485142099290591  0.45732579340174645  1.0000
  C   C61       1.0  0.8719325283070022  0.6699082773684372  0.8777977692101965  1.0000
  C   C62       1.0  0.6280674724039302  0.16990827727363775  0.6222022306124353  1.0000
  C   C63       1.0  0.12806747216695283  0.33009172282116167  0.12220223067155804  1.0000
  C   C64       1.0  0.37193252807002464  0.8300917224907984  0.37779776926931913  1.0000
  C   C65       1.0  0.07983542870406828  0.7131340685723118  0.8782490973219645  1.0000
  C   C66       1.0  0.42016457002199614  0.2131340684775123  0.6217509028919669  1.0000
  C   C67       1.0  0.9201645696600179  0.28686593119212445  0.12175090252098537  1.0000
  C   C68       1.0  0.5798354304599427  0.7868659312869238  0.3782490976388889  1.0000
  C   C69       1.0  0.946071322260984  0.48453855639922033  0.8881187467827647  1.0000
  C   C70       1.0  0.5539286784579323  0.9845385564940199  0.6118812536889683  1.0000
  C   C71       1.0  0.05392867821297098  0.5154614437903785  0.11188125309898965  1.0000
  C   C72       1.0  0.44607132202400646  0.01546144369557909  0.3881187468418875  1.0000
  N   N1        1.0  0.274959997178497  0.44142022421088334  0.556930114311094  1.0000
  N   N2        1.0  0.22504000365743604  0.9414202243056828  0.943069885941642  1.0000
  N   N3        1.0  0.7250400032954579  0.5585797759787154  0.4430698855706605  1.0000
  N   N4        1.0  0.7749599968245028  0.05857977588391606  0.05693011458921378  1.0000
  N   N5        1.0  0.586365893623778  0.37794226948042103  0.6263612036665827  1.0000
  N   N6        1.0  0.9136341070871544  0.8779422695752206  0.8736387961560489  1.0000
  N   N7        1.0  0.41363410685017693  0.6220577302840151  0.3736387962151717  1.0000
  N   N8        1.0  0.08636589338680058  0.12205773018921567  0.1263612037257055  1.0000
  N   N9        1.0  0.30169188476934755  0.4355514346931747  0.7070586427656409  1.0000
  N   N10       1.0  0.1983081139567168  0.9355514347879742  0.7929413574482905  1.0000
  N   N11       1.0  0.6983081135947388  0.5644485654964241  0.292941357077309  1.0000
  N   N12       1.0  0.801691886525222  0.0644485654016247  0.20705864308256527  1.0000
  N   N13       1.0  0.4653616302500025  0.5846510678968709  0.8769055577071703  1.0000
  N   N14       1.0  0.03463837057794665  0.08465106822723423  0.6230944418964642  1.0000
  N   N15       1.0  0.5346383702239523  0.4153489318675652  0.12309444217458411  1.0000
  N   N16       1.0  0.9653616298960083  0.9153489319623647  0.3769055579852902  1.0000
  N   N17       1.0  0.492332652165688  0.7972738217122178  0.8789580542433135  1.0000
  N   N18       1.0  0.00766734867024509  0.29727382161741844  0.6210419460094224  1.0000
  N   N19       1.0  0.5076673483082671  0.20272617847738103  0.1210419456384409  1.0000
  N   N20       1.0  0.9923326518037099  0.7027261781470178  0.378958053872332  1.0000
  O   O1        1.0  0.2304655361234929  0.4809985635413501  0.8634769997731507  1.0000
  O   O2        1.0  0.26953446471244014  0.9809985636361496  0.6365230004795853  1.0000
  O   O3        1.0  0.769534464350462  0.519001436223086  0.13652300010860374  1.0000
  O   O4        1.0  0.7304655357694987  0.019001436553449318  0.3634770000512706  1.0000
  S   S1        1.0  0.9342895486577474  0.5107672388625151  0.6376033061523451  1.0000
  S   S2        1.0  0.565710452053185  0.010767238767715575  0.8623966936702866  1.0000
  S   S3        1.0  0.06571045181620762  0.4892327613270839  0.36239669372940936  1.0000
  S   S4        1.0  0.43428954842076983  0.9892327614218833  0.13760330621146785  1.0000
  S   S5        1.0  0.6086866937104469  0.38550606353396744  0.4545430934965272  1.0000
  S   S6        1.0  0.8913133042996453  0.8855060636287668  0.04545690662454264  1.0000
  S   S7        1.0  0.3913133046536394  0.6144939362304688  0.5454569063464227  1.0000
  S   S8        1.0  0.10868669407242497  0.1144939361356693  0.9545430938675087  1.0000
  S   S9        1.0  0.6303609503586323  0.362791415196317  0.7974236349707551  1.0000
  S   S10       1.0  0.8696390503523003  0.8627914152911164  0.7025763648518765  1.0000
  S   S11       1.0  0.3696390501153228  0.6372085845681191  0.2025763649109993  1.0000
  S   S12       1.0  0.13036095012165472  0.13720858489848242  0.2974236350298779  1.0000
