data_image0
_chemical_formula_structural       H68C52N4F16Br8I8
_chemical_formula_sum              "H68 C52 N4 F16 Br8 I8"
_cell_length_a       7.324748309055588
_cell_length_b       22.87732795412555
_cell_length_c       11.68449238035081
_cell_angle_alpha    90.0
_cell_angle_beta     107.95289081555346
_cell_angle_gamma    90.0

_space_group_name_H-M_alt    "P 1"
_space_group_IT_number       1

loop_
  _space_group_symop_operation_xyz
  'x, y, z'

loop_
  _atom_site_type_symbol
  _atom_site_label
  _atom_site_symmetry_multiplicity
  _atom_site_fract_x
  _atom_site_fract_y
  _atom_site_fract_z
  _atom_site_occupancy
  H   H1        1.0  0.7366216124860421  0.1097985059722423  0.619944729203785  1.0000
  H   H2        1.0  0.2633783869525099  0.6097985061006325  0.8800552702408615  1.0000
  H   H3        1.0  0.26337838676576675  0.8902014938474242  0.380055270604828  1.0000
  H   H4        1.0  0.7366216136644942  0.39020149415614785  0.1199447295676716  1.0000
  H   H5        1.0  0.9116426155097651  0.14835509316497575  0.5699555815416031  1.0000
  H   H6        1.0  0.08835738392878682  0.6483550932933659  0.9300444179030433  1.0000
  H   H7        1.0  0.08835738374204365  0.8516449066546907  0.43004441826700984  1.0000
  H   H8        1.0  0.9116426166882173  0.35164490696341444  0.0699555819054898  1.0000
  H   H9        1.0  0.5399424338073605  0.21538090286944703  0.3113904740418706  1.0000
  H   H10       1.0  0.4600575666229005  0.7153809029978372  0.18860952613062906  1.0000
  H   H11       1.0  0.4600575654444483  0.7846190973873334  0.6886095257667424  1.0000
  H   H12       1.0  0.5399424339941036  0.2846190972589432  0.8113904736779041  1.0000
  H   H13       1.0  0.6641108628294187  0.14969511373300157  0.3034532255339696  1.0000
  H   H14       1.0  0.3358891376008423  0.6496951138613918  0.19654677463853004  1.0000
  H   H15       1.0  0.33588913778758556  0.8503048860866649  0.6965467742745636  1.0000
  H   H16       1.0  0.6641108630161618  0.35030488595827464  0.8034532251700031  1.0000
  H   H17       1.0  0.8683312422876184  0.23527307912851636  0.2969244065220451  1.0000
  H   H18       1.0  0.13166875814264256  0.7352730792569065  0.20307559365045452  1.0000
  H   H19       1.0  0.13166875832938574  0.76472692069115  0.7030755932864879  1.0000
  H   H20       1.0  0.8683312415516385  0.26472692056275987  0.7969244070577969  1.0000
  H   H21       1.0  0.976682953709619  0.19516428662267962  0.42858115190459767  1.0000
  H   H22       1.0  0.023317046720642002  0.6951642867510699  0.071418848267902  1.0000
  H   H23       1.0  0.023317045984662093  0.8048357131969868  0.5714188488036538  1.0000
  H   H24       1.0  0.9766829538963621  0.3048357130685966  0.928581151540631  1.0000
  H   H25       1.0  0.8551918538377636  0.26158927310043656  0.43633702699524995  1.0000
  H   H26       1.0  0.144808145227302  0.7615892732288266  0.06366297317732963  1.0000
  H   H27       1.0  0.1448081454140452  0.7384107271563439  0.5636629728133631  1.0000
  H   H28       1.0  0.8551918544669791  0.23841072702795363  0.9363370275309216  1.0000
  H   H29       1.0  0.5806937787468346  0.19469195786026178  0.6322640954241697  1.0000
  H   H30       1.0  0.41930622249938504  0.6946919579886519  0.8677359049200353  1.0000
  H   H31       1.0  0.4193062223126418  0.8053080423965185  0.36773590528400174  1.0000
  H   H32       1.0  0.5806937781176191  0.30530804226812847  0.13226409488849789  1.0000
  H   H33       1.0  0.7737140141108118  0.22880246899883533  0.5959122193801057  1.0000
  H   H34       1.0  0.22628598532774027  0.7288024686901116  0.9040877800645408  1.0000
  H   H35       1.0  0.22628598514099707  0.7711975312579451  0.40408778042850724  1.0000
  H   H36       1.0  0.7737140139240686  0.27119753112955486  0.09591221974407223  1.0000
  H   H37       1.0  0.5064059768408097  0.29794733736685375  0.5785235058024694  1.0000
  H   H38       1.0  0.4935940230402146  0.7979473374952439  0.9214764945418155  1.0000
  H   H39       1.0  0.4935940224109992  0.7020526624528126  0.4214764940061437  1.0000
  H   H40       1.0  0.5064059775767896  0.2020526627615364  0.07852350526671764  1.0000
  H   H41       1.0  0.34268888668278424  0.2539800518509502  0.47117578844400687  1.0000
  H   H42       1.0  0.6573111123822815  0.7539800519793404  0.028824211728572698  1.0000
  H   H43       1.0  0.6573111130114968  0.7460199479687162  0.5288242122642445  1.0000
  H   H44       1.0  0.3426888868695274  0.24601994827743998  0.9711757880800405  1.0000
  H   H45       1.0  0.536484142272823  0.28849003971243153  0.4354003026093381  1.0000
  H   H46       1.0  0.46351585815743795  0.7884900394037078  0.06459969756316154  1.0000
  H   H47       1.0  0.46351585878665336  0.7115099605443489  0.5645996980988334  1.0000
  H   H48       1.0  0.5364841424595661  0.21150996041595868  0.9354003022453715  1.0000
  H   H49       1.0  0.43709602195630765  0.10506277720980778  0.35704307648986566  1.0000
  H   H50       1.0  0.5629039784739533  0.6050627773381979  0.14295692368263405  1.0000
  H   H51       1.0  0.5629039777379734  0.8949372230469727  0.6429569242183857  1.0000
  H   H52       1.0  0.4370960221430509  0.3949372229185824  0.8570430761258991  1.0000
  H   H53       1.0  0.32764573745779496  0.1713780244730448  0.37814681356827784  1.0000
  H   H54       1.0  0.6723542625299939  0.671378024164321  0.12185318570458341  1.0000
  H   H55       1.0  0.6723542631592091  0.8286219757837356  0.6218531862402552  1.0000
  H   H56       1.0  0.327645736721815  0.3286219756553454  0.8781468141040296  1.0000
  H   H57       1.0  0.21650015330029057  0.0883403609920077  0.4756384926218806  1.0000
  H   H58       1.0  0.7834998471299705  0.5883403611203979  0.02436150755061902  1.0000
  H   H59       1.0  0.7834998459515182  0.9116596392647728  0.5243615071867324  1.0000
  H   H60       1.0  0.2165001534870337  0.41165963913638254  0.975638492257914  1.0000
  H   H61       1.0  0.33974844045806807  0.13820471500605602  0.5884354255512124  1.0000
  H   H62       1.0  0.6602515594229562  0.6382047151344462  0.9115645747930725  1.0000
  H   H63       1.0  0.6602515587937409  0.8617952848136105  0.4115645742574006  1.0000
  H   H64       1.0  0.3397484416365202  0.3617952851223342  0.08843542591509901  1.0000
  H   H65       1.0  0.45133576172325046  0.07131759632382136  0.565236752711079  1.0000
  H   H66       1.0  0.5486642377153015  0.5713175960150976  0.9347632467335674  1.0000
  H   H67       1.0  0.5486642375285584  0.928682403932959  0.43476324709753406  1.0000
  H   H68       1.0  0.45133576290170263  0.42868240380456885  0.06523675307496561  1.0000
  C   C1        1.0  0.23600553719556397  0.46293591678350415  0.440283736405866  1.0000
  C   C2        1.0  0.763994463234697  0.9629359164747805  0.059716263766633707  1.0000
  C   C3        1.0  0.7639944624987172  0.5370640834732762  0.5597162643023855  1.0000
  C   C4        1.0  0.2360055373823071  0.03706408334488601  0.9402837360418993  1.0000
  C   C5        1.0  0.14658371796943492  0.5152201486832484  0.392120390295499  1.0000
  C   C6        1.0  0.8534162820183538  0.015220148554858152  0.1078796089773622  1.0000
  C   C7        1.0  0.8534162826475693  0.4847798511364181  0.607879609513034  1.0000
  C   C8        1.0  0.14658371859865038  0.9847798512648084  0.8921203908311709  1.0000
  C   C9        1.0  0.15823819513065346  0.56636369360887  0.45911544449707087  1.0000
  C   C10       1.0  0.8417618052996076  0.0663636934804798  0.04088455567542878  1.0000
  C   C11       1.0  0.8417618054863507  0.43363630664791036  0.5408845553114623  1.0000
  C   C12       1.0  0.1582381957598688  0.9336363063391866  0.9591154450327426  1.0000
  C   C13       1.0  0.26132324404313473  0.5636902721270151  0.5811735421008156  1.0000
  C   C14       1.0  0.7386767558378894  0.06369027199862486  0.9188264582434692  1.0000
  C   C15       1.0  0.7386767556511462  0.43630972769265136  0.41882645860743567  1.0000
  C   C16       1.0  0.2613232434139194  0.9363097278210416  0.08117354156514386  1.0000
  C   C17       1.0  0.35031364167755913  0.5121686834885375  0.6335126331539936  1.0000
  C   C18       1.0  0.6496863595686604  0.01216868336014729  0.8664873671902112  1.0000
  C   C19       1.0  0.649686358939445  0.48783131676824293  0.36648736665453946  1.0000
  C   C20       1.0  0.3503136410483437  0.9878313168966332  0.1335126326183218  1.0000
  C   C21       1.0  0.33955939443111394  0.46264456195336995  0.5623498513609778  1.0000
  C   C22       1.0  0.6604406054499103  0.9626445616446462  0.9376501489833069  1.0000
  C   C23       1.0  0.6604406052631672  0.5373554383034105  0.43765014934727364  1.0000
  C   C24       1.0  0.33955939380189853  0.037355438175020274  0.06234985082530598  1.0000
  C   C25       1.0  0.7749730668689193  0.12477295581563942  0.5416408798762898  1.0000
  C   C26       1.0  0.22502693301210494  0.6247729559440297  0.9583591204679951  1.0000
  C   C27       1.0  0.22502693419055708  0.875227044004027  0.45835912083188163  1.0000
  C   C28       1.0  0.774973066239704  0.3752270438756368  0.04164087934061804  1.0000
  C   C29       1.0  0.6649202533574118  0.18858377860610193  0.35857256193585146  1.0000
  C   C30       1.0  0.3350797470728491  0.6885837787344922  0.1414274382366482  1.0000
  C   C31       1.0  0.3350797477020645  0.8114162212135645  0.64142743877232  1.0000
  C   C32       1.0  0.664920253544155  0.31141622108517425  0.8585725615718849  1.0000
  C   C33       1.0  0.8509394667179154  0.22186853727752195  0.383117140993342  1.0000
  C   C34       1.0  0.1490605332698734  0.7218685374059123  0.11688285827951933  1.0000
  C   C35       1.0  0.1490605338990888  0.7781314625421445  0.6168828588151911  1.0000
  C   C36       1.0  0.8509394659819355  0.2781314628508682  0.8831171415290937  1.0000
  C   C37       1.0  0.6230315516822342  0.21515210560734999  0.5593620467605896  1.0000
  C   C38       1.0  0.3769684481987899  0.7151521057357403  0.9406379535836951  1.0000
  C   C39       1.0  0.37696844801204676  0.7848478946494304  0.4406379539476617  1.0000
  C   C40       1.0  0.6230315510530189  0.28484789452104026  0.059362046224917864  1.0000
  C   C41       1.0  0.4942823520355784  0.2661753668177791  0.5062428660772473  1.0000
  C   C42       1.0  0.5057176478454458  0.7661753669461693  0.9937571342670375  1.0000
  C   C43       1.0  0.5057176472162304  0.7338246330018873  0.4937571337313656  1.0000
  C   C44       1.0  0.494282351406363  0.23382463287349714  0.0062428655415755685  1.0000
  C   C45       1.0  0.42566361675174924  0.13666862171445887  0.42507460812248177  1.0000
  C   C46       1.0  0.5743363836785117  0.6366686218428491  0.07492539205001796  1.0000
  C   C47       1.0  0.574336383865255  0.8633313785423216  0.5749253916860514  1.0000
  C   C48       1.0  0.4256636169384923  0.3633313784139313  0.925074607758515  1.0000
  C   C49       1.0  0.3580167527637233  0.10743584674436457  0.520705806990928  1.0000
  C   C50       1.0  0.6419832466748288  0.6074358464356409  0.9792941924537185  1.0000
  C   C51       1.0  0.6419832478532809  0.8925641535124158  0.47929419281760505  1.0000
  C   C52       1.0  0.35801675257698007  0.3925641533840256  0.020705807354894572  1.0000
  N   N1        1.0  0.6218807978997972  0.1658848960687139  0.4703050265766143  1.0000
  N   N2        1.0  0.3781192025304638  0.6658848957599901  0.02969497359588528  1.0000
  N   N3        1.0  0.378119202717207  0.8341151041880666  0.5296949732319187  1.0000
  N   N4        1.0  0.621880796721345  0.3341151040596763  0.9703050262127277  1.0000
  F   F1        1.0  0.041048345702189785  0.5162369912116523  0.2736141064171127  1.0000
  F   F2        1.0  0.9589516547280711  0.01623699108326213  0.22638589375538698  1.0000
  F   F3        1.0  0.9589516549148144  0.4837630090451281  0.7263858933914205  1.0000
  F   F4        1.0  0.041048345888932865  0.9837630087364042  0.773614106053146  1.0000
  F   F5        1.0  0.2775853062426106  0.6112733291248797  0.6527623514308646  1.0000
  F   F6        1.0  0.7224146936384137  0.11127332943360355  0.8472376489134203  1.0000
  F   F7        1.0  0.7224146930091982  0.3887266706947866  0.34723764837774845  1.0000
  F   F8        1.0  0.2775853074210627  0.8887266708231768  0.15276235179475117  1.0000
  F   F9        1.0  0.4476391462235637  0.5102544363313601  0.7525490588185834  1.0000
  F   F10       1.0  0.5523608536574606  0.010254436202969884  0.7474509415257015  1.0000
  F   F11       1.0  0.5523608534707173  0.48974556348830633  0.24745094188966804  1.0000
  F   F12       1.0  0.44763914695954354  0.9897455636166965  0.2525490582828316  1.0000
  F   F13       1.0  0.4346388589911557  0.41409871550543625  0.6157186925089871  1.0000
  F   F14       1.0  0.5653611408898684  0.9140987156338265  0.8842813078352977  1.0000
  F   F15       1.0  0.5653611407031254  0.5859012843142302  0.3842813081992642  1.0000
  F   F16       1.0  0.4346388597271356  0.08590128418583998  0.11571869197323549  1.0000
  Br  Br1       1.0  0.8082329675642822  0.05616287455320136  0.4532825864106355  1.0000
  Br  Br2       1.0  0.19176703286597893  0.5561628742444776  0.04671741376186415  1.0000
  Br  Br3       1.0  0.19176703168752676  0.943837125703579  0.5467174133979775  1.0000
  Br  Br4       1.0  0.8082329681934974  0.44383712557518884  0.9532825869463072  1.0000
  Br  Br5       1.0  0.18151247074052806  0.26828503146466354  0.19381272281750112  1.0000
  Br  Br6       1.0  0.8184875292472608  0.7682850315930537  0.3061872764553602  1.0000
  Br  Br7       1.0  0.8184875298764761  0.7317149687921168  0.806187276991032  1.0000
  Br  Br8       1.0  0.18151247000454815  0.23171496866372668  0.6938127233532528  1.0000
  I   I1        1.0  0.21032025066042037  0.38579273058890573  0.3354571667899887  1.0000
  I   I2        1.0  0.7896797493273684  0.8857927302801819  0.16454283248287255  1.0000
  I   I3        1.0  0.7896797485913885  0.6142072696678748  0.6645428330186243  1.0000
  I   I4        1.0  0.21032025128963577  0.1142072695394845  0.8354571673256606  1.0000
  I   I5        1.0  0.021055463157724524  0.6449407845875316  0.38292817299930726  1.0000
  I   I6        1.0  0.9789445359073411  0.1449407848962553  0.1170718271732723  1.0000
  I   I7        1.0  0.9789445365365564  0.3550592152321349  0.6170718277089441  1.0000
  I   I8        1.0  0.021055463344467694  0.8550592153605251  0.8829281726353407  1.0000
