data_image0
_chemical_formula_structural       H68C52N4F16Br8I8
_chemical_formula_sum              "H68 C52 N4 F16 Br8 I8"
_cell_length_a       11.573023013823317
_cell_length_b       23.806512929184365
_cell_length_c       7.088491509905754
_cell_angle_alpha    90.0
_cell_angle_beta     106.50151559892643
_cell_angle_gamma    90.0

_space_group_name_H-M_alt    "P 1"
_space_group_IT_number       1

loop_
  _space_group_symop_operation_xyz
  'x, y, z'

loop_
  _atom_site_type_symbol
  _atom_site_label
  _atom_site_symmetry_multiplicity
  _atom_site_fract_x
  _atom_site_fract_y
  _atom_site_fract_z
  _atom_site_occupancy
  H   H1        1.0  0.5857780190674854  0.3597345161584491  0.7365495060070244  1.0000
  H   H2        1.0  0.5857780195146932  0.640265483875812  0.2365495048599807  1.0000
  H   H3        1.0  0.08577801944617687  0.8597345163856062  0.7365495050633888  1.0000
  H   H4        1.0  0.08577801928711214  0.14026548364865488  0.2365495053900836  1.0000
  H   H5        1.0  0.6378599947046828  0.39582000766051906  0.9678030017636647  1.0000
  H   H6        1.0  0.6378599951518907  0.604179992373742  0.4678030006166212  1.0000
  H   H7        1.0  0.13785999508337432  0.895820007467623  0.9678030008200292  1.0000
  H   H8        1.0  0.1378599949243096  0.10417999256663807  0.4678030011467241  1.0000
  H   H9        1.0  0.37667384590778114  0.3918494433749734  0.03920266682200846  1.0000
  H   H10       1.0  0.37667384606684595  0.6081505566592876  0.5392026664953137  1.0000
  H   H11       1.0  0.8766738461353623  0.8918494436021305  0.039202666291905545  1.0000
  H   H12       1.0  0.8766738465518139  0.10815055643213059  0.5392026674365472  1.0000
  H   H13       1.0  0.41226188116421497  0.3286329221449756  0.1724774969724727  1.0000
  H   H14       1.0  0.4122618813232796  0.6713670778892854  0.6724774966457778  1.0000
  H   H15       1.0  0.9122618807855235  0.8286329223721327  0.17247749791610834  1.0000
  H   H16       1.0  0.9122618809445882  0.17136707766212836  0.6724774975894136  1.0000
  H   H17       1.0  0.5020786817825272  0.4107167853219482  0.3762209342589553  1.0000
  H   H18       1.0  0.5020786821989787  0.5892832142922597  0.8762209354035969  1.0000
  H   H19       1.0  0.0020786824186054876  0.9107167855491054  0.37622093478665625  1.0000
  H   H20       1.0  0.002078681714010778  0.0892832144851557  0.8762209344623633  1.0000
  H   H21       1.0  0.5828418137062893  0.43113606350208344  0.21156593178104585  1.0000
  H   H22       1.0  0.5828418138653539  0.5688639365321776  0.7115659314543511  1.0000
  H   H23       1.0  0.0828418134787081  0.9311360633091874  0.21156593231114879  1.0000
  H   H24       1.0  0.08284181363777283  0.06886393672507365  0.711565931984454  1.0000
  H   H25       1.0  0.6196824889484698  0.367027619542236  0.3484355439766132  1.0000
  H   H26       1.0  0.6196824893649213  0.6329723804920251  0.848435545121255  1.0000
  H   H27       1.0  0.11968248872088864  0.8670276193493399  0.34843554450671604  1.0000
  H   H28       1.0  0.11968248887995339  0.13297238068492112  0.8484355441800212  1.0000
  H   H29       1.0  0.6612224624645436  0.31280373451380283  0.14065818019334927  1.0000
  H   H30       1.0  0.6612224626236083  0.6871962655204582  0.6406581798666544  1.0000
  H   H31       1.0  0.16122246284323508  0.8128037343209068  0.14065817924971363  1.0000
  H   H32       1.0  0.16122246325968662  0.1871962657133543  0.6406581803943554  1.0000
  H   H33       1.0  0.6255754574839809  0.28167669914309224  0.9038338156737543  1.0000
  H   H34       1.0  0.6255754573249162  0.7183233008911688  0.40383381600044915  1.0000
  H   H35       1.0  0.12557545725639974  0.7816766989501962  0.9038338162038572  1.0000
  H   H36       1.0  0.12557545796099445  0.21832330108406484  0.40383381652815015  1.0000
  H   H37       1.0  0.6187159838839981  0.21207534572653503  0.16009197765910158  1.0000
  H   H38       1.0  0.6187159831794034  0.787924654307726  0.6600919773348087  1.0000
  H   H39       1.0  0.1187159836564169  0.7120753455336389  0.16009197818920448  1.0000
  H   H40       1.0  0.11871598381548165  0.28792465408056894  0.6600919778625097  1.0000
  H   H41       1.0  0.47304788812735643  0.2185588861954452  0.9948090551290569  1.0000
  H   H42       1.0  0.47304788796829167  0.7814411138388159  0.4948090554557517  1.0000
  H   H43       1.0  0.9730478874912781  0.7185588864226023  0.9948090546013559  1.0000
  H   H44       1.0  0.9730478873322135  0.2814411136116588  0.4948090549280508  1.0000
  H   H45       1.0  0.5083976114252521  0.2502945743345432  0.23249342748690963  1.0000
  H   H46       1.0  0.5083976115843168  0.7497054256997178  0.7324934271602148  1.0000
  H   H47       1.0  0.008397612061330337  0.7502945745617003  0.23249342801461056  1.0000
  H   H48       1.0  0.00839761222039508  0.24970542547256072  0.7324934276879157  1.0000
  H   H49       1.0  0.3228319146512395  0.35138534966811713  0.7527262810017411  1.0000
  H   H50       1.0  0.32283191449217474  0.6486146503661439  0.25272628132843594  1.0000
  H   H51       1.0  0.8228319148788207  0.8513853494752212  0.7527262804716383  1.0000
  H   H52       1.0  0.8228319147197559  0.1486146505590399  0.25272628079833304  1.0000
  H   H53       1.0  0.34035121900154375  0.287099324891937  0.8840680089898766  1.0000
  H   H54       1.0  0.340351218842479  0.712900675142324  0.38406800931657137  1.0000
  H   H55       1.0  0.8403512186228523  0.7870993246990409  0.8840680099335122  1.0000
  H   H56       1.0  0.8403512190700602  0.2129006753352201  0.3840680087864685  1.0000
  H   H57       1.0  0.3183054026390168  0.27102727892963446  0.5274892608789711  1.0000
  H   H58       1.0  0.31830540247995204  0.7289727211046265  0.027489261205665944  1.0000
  H   H59       1.0  0.8183054028665979  0.7710272791567915  0.5274892603488682  1.0000
  H   H60       1.0  0.8183054027075333  0.22897272087746948  0.027489260675563038  1.0000
  H   H61       1.0  0.46252325629305446  0.2482647096439963  0.6663333733787462  1.0000
  H   H62       1.0  0.46252325699764907  0.7517352903902648  0.16633337370303913  1.0000
  H   H63       1.0  0.9625232565206356  0.7482647094511002  0.6663333728486434  1.0000
  H   H64       1.0  0.962523256361571  0.25173529016310764  0.16633337317533817  1.0000
  H   H65       1.0  0.4446891882516637  0.3131677554867936  0.5365435385169632  1.0000
  H   H66       1.0  0.44468918809259894  0.6868322445474675  0.036543538843658144  1.0000
  H   H67       1.0  0.9446891884792449  0.8131677552938976  0.5365435379868604  1.0000
  H   H68       1.0  0.94468918832018  0.18683224474036345  0.03654353831355524  1.0000
  C   C1        1.0  0.448240949670976  0.9724134781461728  0.6767346549093288  1.0000
  C   C2        1.0  0.44824095011818393  0.027586521468035117  0.17673465376228517  1.0000
  C   C3        1.0  0.9482409498985571  0.4724134783390689  0.676734654379226  1.0000
  C   C4        1.0  0.9482409497394925  0.5275865216951922  0.17673465470592079  1.0000
  C   C5        1.0  0.5712858807518807  0.9774650608940423  0.6971138852848034  1.0000
  C   C6        1.0  0.5712858805928159  0.02253493914021873  0.19711388561149829  1.0000
  C   C7        1.0  0.07128588026691271  0.47746506108693837  0.6971138843435698  1.0000
  C   C8        1.0  0.07128588010784795  0.5225349389473227  0.19711388467026458  1.0000
  C   C9        1.0  0.6252535070146915  0.030031656132366417  0.7035616878612821  1.0000
  C   C10       1.0  0.6252535077192863  0.9699683434818416  0.20356168818557505  1.0000
  C   C11       1.0  0.12525350765076984  0.5300316563595235  0.7035616883889831  1.0000
  C   C12       1.0  0.12525350749170508  0.46996834367473755  0.20356168871567792  1.0000
  C   C13       1.0  0.5586910527413973  0.0793732049553357  0.6907539449858796  1.0000
  C   C14       1.0  0.5586910525823324  0.9206267946588723  0.19075394531257445  1.0000
  C   C15       1.0  0.05869105251381612  0.5793732051824928  0.6907539455159825  1.0000
  C   C16       1.0  0.058691052961024004  0.42062679485176824  0.1907539443689388  1.0000
  C   C17       1.0  0.4359694886238051  0.07436915289805353  0.6725091730534402  1.0000
  C   C18       1.0  0.4359694884647403  0.9256308471362075  0.17250917338013494  1.0000
  C   C19       1.0  0.9359694891087731  0.5743691527051574  0.6725091739946738  1.0000
  C   C20       1.0  0.9359694886923215  0.42563084732910356  0.17250917285003206  1.0000
  C   C21       1.0  0.3819486101500783  0.021830662959583885  0.6648991064966243  1.0000
  C   C22       1.0  0.3819486108546729  0.9781693370746772  0.16489910682091716  1.0000
  C   C23       1.0  0.8819486103776595  0.5218306627666879  0.6648991059665212  1.0000
  C   C24       1.0  0.8819486102185946  0.4781693372675732  0.1648991062932162  1.0000
  C   C25       1.0  0.5588317198980979  0.3804308101291629  0.8553049624563975  1.0000
  C   C26       1.0  0.5588317194816462  0.619569189905098  0.3553049613117558  1.0000
  C   C27       1.0  0.05883172027678934  0.8804308103563201  0.8553049615127619  1.0000
  C   C28       1.0  0.058831720117724605  0.119569189677941  0.3553049618394568  1.0000
  C   C29       1.0  0.4512271718304799  0.3638827990377504  0.1119690286636095  1.0000
  C   C30       1.0  0.4512271719895446  0.6361172009965107  0.6119690283369146  1.0000
  C   C31       1.0  0.9512271720580612  0.8638827988448543  0.11196902813350659  1.0000
  C   C32       1.0  0.9512271722171257  0.1361172011894067  0.6119690278068118  1.0000
  C   C33       1.0  0.5459850836248475  0.39457300352814956  0.26875435562044453  1.0000
  C   C34       1.0  0.5459850829202528  0.6054269965061114  0.7687543552961517  1.0000
  C   C35       1.0  0.045985083139879576  0.8945730033352535  0.2687543546792108  1.0000
  C   C36       1.0  0.04598508355633116  0.10542699669900753  0.7687543558238527  1.0000
  C   C37       1.0  0.5891881996132786  0.2923683548575237  0.026613232107082326  1.0000
  C   C38       1.0  0.5891881997723434  0.7076316451767374  0.5266132317803874  1.0000
  C   C39       1.0  0.08918819938569751  0.7923683550846807  0.02661323263718523  1.0000
  C   C40       1.0  0.08918819954476226  0.20763164494958028  0.5266132323104904  1.0000
  C   C41       1.0  0.5425688765803934  0.24098892799066304  0.10679413043915856  1.0000
  C   C42       1.0  0.5425688767394581  0.759011072043598  0.6067941301124637  1.0000
  C   C43       1.0  0.04256887609542541  0.740988927797767  0.10679412949792488  1.0000
  C   C44       1.0  0.04256887651187697  0.259011072236494  0.6067941306425666  1.0000
  C   C45       1.0  0.3823216907541647  0.3150011277295001  0.7989637180104108  1.0000
  C   C46       1.0  0.3823216905951  0.684998872304761  0.29896371833710567  1.0000
  C   C47       1.0  0.8823216909817457  0.8150011275366041  0.7989637174803078  1.0000
  C   C48       1.0  0.8823216908226812  0.18499887249765695  0.29896371780700265  1.0000
  C   C49       1.0  0.4049426548218646  0.2853746586158581  0.6246181417902384  1.0000
  C   C50       1.0  0.4049426555264593  0.714625341418403  0.12461814211453125  1.0000
  C   C51       1.0  0.9049426550494458  0.7853746584229621  0.6246181412601355  1.0000
  C   C52       1.0  0.9049426548903811  0.21462534161129898  0.12461814158683031  1.0000
  N   N1        1.0  0.4946148276082038  0.33824797121498834  0.9474239863632401  1.0000
  N   N2        1.0  0.49461482744913904  0.6617520288192728  0.447423986689935  1.0000
  N   N3        1.0  0.9946148272295123  0.8382479710220924  0.9474239873068757  1.0000
  N   N4        1.0  0.99461482767672  0.16175202859211565  0.4474239861598321  1.0000
  F   F1        1.0  0.6408061938704883  0.9308395629346471  0.709127640999909  1.0000
  F   F2        1.0  0.6408061934540367  0.06916043667956077  0.20912763985526733  1.0000
  F   F3        1.0  0.1408061933855203  0.4308395631275432  0.7091276400586755  1.0000
  F   F4        1.0  0.140806194090115  0.5691604369067179  0.20912764038296827  1.0000
  F   F5        1.0  0.7451337260928544  0.03261464424922822  0.7194559941193447  1.0000
  F   F6        1.0  0.7451337259337897  0.9673853557850328  0.21945599444603947  1.0000
  F   F7        1.0  0.24513372586527327  0.5326146440563322  0.7194559946494474  1.0000
  F   F8        1.0  0.24513372656986795  0.46738535597792885  0.21945599497374046  1.0000
  F   F9        1.0  0.3659956636348465  0.1209387228849665  0.657301351835484  1.0000
  F   F10       1.0  0.3659956634757818  0.8790612771492946  0.1573013521621788  1.0000
  F   F11       1.0  0.8659956641198145  0.6209387226920704  0.6573013527767176  1.0000
  F   F12       1.0  0.8659956637033628  0.3790612773421906  0.15730135163207593  1.0000
  F   F13       1.0  0.2614501708418267  0.019550491556007406  0.6436191006703021  1.0000
  F   F14       1.0  0.2614501704253751  0.9804495084782537  0.14361909952566035  1.0000
  F   F15       1.0  0.7614501702057483  0.5195504917831645  0.6436191001426012  1.0000
  F   F16       1.0  0.7614501700466836  0.48044950825109656  0.143619100469296  1.0000
  Br  Br1       1.0  0.461065165953898  0.4452073943600075  0.7465349724227199  1.0000
  Br  Br2       1.0  0.46106516579483325  0.5547926056742536  0.24653497274941472  1.0000
  Br  Br3       1.0  0.961065166438866  0.9452073945871645  0.7465349733639535  1.0000
  Br  Br4       1.0  0.9610651662798013  0.05479260544709648  0.2465349736906484  1.0000
  Br  Br5       1.0  0.7299441113692858  0.27818642359340695  0.6100385814253975  1.0000
  Br  Br6       1.0  0.7299441112102211  0.7218135764408541  0.1100385817520923  1.0000
  Br  Br7       1.0  0.22994411088431796  0.7781864234005109  0.6100385804841637  1.0000
  Br  Br8       1.0  0.22994411158891262  0.22181357663375018  0.11003858080845665  1.0000
  I   I1        1.0  0.3648159781745051  0.8926394782475212  0.6593049752854302  1.0000
  I   I2        1.0  0.36481597887909983  0.10736052178673977  0.15930497560972315  1.0000
  I   I3        1.0  0.8648159784020862  0.3926394780203642  0.6593049747553272  1.0000
  I   I4        1.0  0.8648159782430215  0.6073605220138969  0.15930497508202215  1.0000
  I   I5        1.0  0.6366521645679087  0.15904200633090032  0.6762013762366669  1.0000
  I   I6        1.0  0.6366521641514572  0.8409579937033608  0.17620137509202516  1.0000
  I   I7        1.0  0.13665216408294084  0.6590420065580574  0.6762013752954332  1.0000
  I   I8        1.0  0.1366521639238761  0.34095799347620365  0.17620137562212804  1.0000
