data_image0
_chemical_formula_structural       H36C44N8O20I4
_chemical_formula_sum              "H36 C44 N8 O20 I4"
_cell_length_a       13.693271468207474
_cell_length_b       9.877194534313782
_cell_length_c       9.37023320819205
_cell_angle_alpha    90.0
_cell_angle_beta     108.55270876753526
_cell_angle_gamma    90.0

_space_group_name_H-M_alt    "P 1"
_space_group_IT_number       1

loop_
  _space_group_symop_operation_xyz
  'x, y, z'

loop_
  _atom_site_type_symbol
  _atom_site_label
  _atom_site_symmetry_multiplicity
  _atom_site_fract_x
  _atom_site_fract_y
  _atom_site_fract_z
  _atom_site_occupancy
  H   H1        1.0  0.2012835367366759  0.7704182329875185  0.4662627425244939  1.0000
  H   H2        1.0  0.7987164628254694  0.27041823269967274  0.033737258013843176  1.0000
  H   H3        1.0  0.7987164630031159  0.22958176758817309  0.5337372571813576  1.0000
  H   H4        1.0  0.2012835371542266  0.7295817668635857  0.9662627428176909  1.0000
  H   H5        1.0  0.22402395371620806  0.2248286932372626  0.24912437216150227  1.0000
  H   H6        1.0  0.7759760463380411  0.7248286925126751  0.25087562725914797  1.0000
  H   H7        1.0  0.7759760460235837  0.775171307338429  0.7508756275443492  1.0000
  H   H8        1.0  0.2240239534017506  0.2751713070505832  0.7491243724467035  1.0000
  H   H9        1.0  0.15149243867448814  0.20222905229422752  0.4580333462992263  1.0000
  H   H10       1.0  0.8485075613797611  0.7022290525820732  0.04196665312142384  1.0000
  H   H11       1.0  0.8485075610653036  0.7977709472690309  0.5419666534066251  1.0000
  H   H12       1.0  0.15149243909203883  0.29777094698118506  0.9580333465924232  1.0000
  H   H13       1.0  0.2753404471882137  0.7915073832797752  0.2614447704260777  1.0000
  H   H14       1.0  0.7246595521340274  0.29150738400436266  0.23855522898657672  1.0000
  H   H15       1.0  0.724659552551578  0.20849261628348312  0.7385552292797737  1.0000
  H   H16       1.0  0.2753404476057644  0.7084926165713289  0.7614447707192746  1.0000
  H   H17       1.0  0.05952470430695464  0.8490575254811096  0.7143426316484949  1.0000
  H   H18       1.0  0.9404752958503878  0.3490575251932638  0.7856573683505534  1.0000
  H   H19       1.0  0.9404752954328371  0.15094247509458206  0.28565736805735653  1.0000
  H   H20       1.0  0.05952470388940396  0.6509424753824279  0.21434263135529796  1.0000
  H   H21       1.0  0.06935416260294813  0.7796195775276374  0.5461280321704558  1.0000
  H   H22       1.0  0.9306458375543943  0.2796195772397916  0.9538719678285925  1.0000
  H   H23       1.0  0.9306458373767478  0.2203804230480542  0.4538719686610782  1.0000
  H   H24       1.0  0.06935416291740559  0.7203804223234668  0.04612803188525458  1.0000
  H   H25       1.0  0.46943721337707867  0.7812258757477324  0.6116577550201701  1.0000
  H   H26       1.0  0.5305627867802639  0.2812258754598866  0.8883422449788785  1.0000
  H   H27       1.0  0.5305627866026174  0.21877412482795924  0.38834224581136406  1.0000
  H   H28       1.0  0.46943721295952795  0.7187741251158051  0.11165775472697304  1.0000
  H   H29       1.0  0.4468617350194609  0.21718356083274562  0.5903680502198383  1.0000
  H   H30       1.0  0.5531382651378816  0.7171835611205915  0.90963194977921  1.0000
  H   H31       1.0  0.5531382647203309  0.7828164387305128  0.40963194948601317  1.0000
  H   H32       1.0  0.4468617353339184  0.2828164384426669  0.09036804993463707  1.0000
  H   H33       1.0  0.0733597096923476  0.07938383386861932  0.7806244863194505  1.0000
  H   H34       1.0  0.926640290464995  0.5793838341564651  0.7193755136795978  1.0000
  H   H35       1.0  0.9266402907794522  0.920616165694639  0.21937551339439665  1.0000
  H   H36       1.0  0.07335970927479694  0.4206161664192265  0.28062448602625356  1.0000
  C   C1        1.0  0.12366755251286957  0.9757225785641123  0.5981995822600897  1.0000
  C   C2        1.0  0.8763324476444728  0.47572257928869977  0.9018004177389586  1.0000
  C   C3        1.0  0.8763324472269222  0.024277420999146048  0.40180041744576167  1.0000
  C   C4        1.0  0.1236675520953189  0.5242774212869918  0.09819958196689284  1.0000
  C   C5        1.0  0.2533844919449365  0.008991277805805612  0.24100956037060386  1.0000
  C   C6        1.0  0.7466155081093128  0.5089912770812182  0.2589904390500464  1.0000
  C   C7        1.0  0.7466155077948553  0.9910087227698859  0.7589904393352476  1.0000
  C   C8        1.0  0.25338449236248717  0.49100872248204014  0.7410095606638007  1.0000
  C   C9        1.0  0.20505635443377776  0.8702086053018244  0.4189522839326909  1.0000
  C   C10       1.0  0.7949436458603756  0.3702086050139787  0.08104771661364188  1.0000
  C   C11       1.0  0.794943645306014  0.1297913942614339  0.5810477157731605  1.0000
  C   C12       1.0  0.2050563541193203  0.6297913945492797  0.9189522842178921  1.0000
  C   C13       1.0  0.21995133333447572  0.12539186058321833  0.2968428067633811  1.0000
  C   C14       1.0  0.7800486667197735  0.6253918608710642  0.2031571926572691  1.0000
  C   C15       1.0  0.7800486671373242  0.87460813898004  0.7031571929504661  1.0000
  C   C16       1.0  0.2199513330200183  0.3746081386921942  0.7968428070485823  1.0000
  C   C17       1.0  0.17857414653139572  0.11272276719184333  0.41415335804966846  1.0000
  C   C18       1.0  0.8214258530307496  0.6127227674796891  0.08584664248866863  1.0000
  C   C19       1.0  0.821425853208396  0.887277232371415  0.5858466416561829  1.0000
  C   C20       1.0  0.17857414694894647  0.38727723208356923  0.9141533583428655  1.0000
  C   C21       1.0  0.16930764049098154  0.9853091529371338  0.47450198495965595  1.0000
  C   C22       1.0  0.8306923588312596  0.485309152649288  0.02549801445299857  1.0000
  C   C23       1.0  0.8306923592488102  0.014690846626124602  0.5254980147461955  1.0000
  C   C24       1.0  0.16930764090853223  0.5146908469139705  0.9745019852528528  1.0000
  C   C25       1.0  0.24719237525343715  0.8815246140745286  0.3025441517603887  1.0000
  C   C26       1.0  0.7528076250407162  0.3815246137866828  0.19745584878594413  1.0000
  C   C27       1.0  0.7528076254582671  0.118475386501163  0.6974558490791412  1.0000
  C   C28       1.0  0.2471923746990755  0.6184753857765756  0.8025441509199074  1.0000
  C   C29       1.0  0.4551005989549726  0.9991095635219872  0.6103167045580443  1.0000
  C   C30       1.0  0.5448994012023698  0.49910956424657454  0.8896832954410039  1.0000
  C   C31       1.0  0.5448994015168273  0.0008904360412712104  0.38968329515580274  1.0000
  C   C32       1.0  0.4551005987773261  0.500890436329117  0.11031670539053001  1.0000
  C   C33       1.0  0.4828605703185758  0.8757297246652783  0.5616117425503887  1.0000
  C   C34       1.0  0.5171394291067585  0.37572972437743246  0.9383882574406638  1.0000
  C   C35       1.0  0.5171394294212159  0.1242702748979801  0.43838825715546276  1.0000
  C   C36       1.0  0.4828605706330332  0.6242702751858259  0.06161174226518746  1.0000
  C   C37       1.0  0.4708140077192413  0.12343852961125319  0.5504042277636357  1.0000
  C   C38       1.0  0.5291859924381012  0.623438529899099  0.9495957722354126  1.0000
  C   C39       1.0  0.5291859920205505  0.8765614709644385  0.44959577194221567  1.0000
  C   C40       1.0  0.4708140080336988  0.3765614706765926  0.050404227478434586  1.0000
  C   C41       1.0  0.0230254380528051  0.9865705364156829  0.9359581358453988  1.0000
  C   C42       1.0  0.9769745613725291  0.4865705361278371  0.5640418641456538  1.0000
  C   C43       1.0  0.9769745616869868  0.013429464160008625  0.0640418638604527  1.0000
  C   C44       1.0  0.023025438607166732  0.5134294634354212  0.43595813668588007  1.0000
  N   N1        1.0  0.08224083650434647  0.859044678174853  0.6204252804954155  1.0000
  N   N2        1.0  0.917759163652996  0.3590446778870072  0.879574719503633  1.0000
  N   N3        1.0  0.9177591632354454  0.14095532138840536  0.379574719210436  1.0000
  N   N4        1.0  0.08224083608679578  0.6409553216762511  0.1204252802022185  1.0000
  N   N5        1.0  0.4088945972602044  0.9979724248374162  0.7315379419148117  1.0000
  N   N6        1.0  0.5911054028971381  0.4979724255620038  0.7684620580842367  1.0000
  N   N7        1.0  0.5911054032115955  0.002027574725842064  0.2684620577990355  1.0000
  N   N8        1.0  0.40889459684265367  0.5020275750136879  0.2315379416216147  1.0000
  O   O1        1.0  0.12604209824937987  0.07938943161196718  0.6800763042407588  1.0000
  O   O2        1.0  0.8739579019079626  0.5793894308873798  0.8199236957582897  1.0000
  O   O3        1.0  0.873957901490412  0.9206105689637244  0.31992369546509264  1.0000
  O   O4        1.0  0.12604209856383733  0.42061056867587865  0.18007630395555754  1.0000
  O   O5        1.0  0.3931117688898619  0.108329561221337  0.7839985532433059  1.0000
  O   O6        1.0  0.6068882312674806  0.6083295604967496  0.7160014467557425  1.0000
  O   O7        1.0  0.6068882310898341  0.8916704393543546  0.2160014475882282  1.0000
  O   O8        1.0  0.3931117684723112  0.3916704390665088  0.28399855295010895  1.0000
  O   O9        1.0  0.38929558630560673  0.8866787294281488  0.7777507302572498  1.0000
  O   O10       1.0  0.6107044138517358  0.386678729140303  0.7222492697417985  1.0000
  O   O11       1.0  0.6107044134341851  0.11332127114754281  0.22224926944860154  1.0000
  O   O12       1.0  0.38929558685996835  0.6133212714353886  0.27775073109773124  1.0000
  O   O13       1.0  0.03294198641578491  0.09594324853153638  0.8646568831398812  1.0000
  O   O14       1.0  0.9670580137415575  0.5959432488193822  0.635343116859167  1.0000
  O   O15       1.0  0.967058014056015  0.9040567510317219  0.1353431165739659  1.0000
  O   O16       1.0  0.03294198599823426  0.4040567517563094  0.36465688284668435  1.0000
  O   O17       1.0  0.04684767587879473  0.8701290837335014  0.9099129087398126  1.0000
  O   O18       1.0  0.9531523242785477  0.37012908344565565  0.5900870912592359  1.0000
  O   O19       1.0  0.9531523248329093  0.1298709158297569  0.09008709209971723  1.0000
  O   O20       1.0  0.04684767546124404  0.6298709161176027  0.40991290844661554  1.0000
  I   I1        1.0  0.31257983446760285  0.02354936507445836  0.059863530216262145  1.0000
  I   I2        1.0  0.6874201658265506  0.5235493653623041  0.4401364703300706  1.0000
  I   I3        1.0  0.687420165272189  0.9764506355012332  0.9401364694895893  1.0000
  I   I4        1.0  0.31257983488515345  0.4764506352133875  0.559863530509459  1.0000
