data_image0
_chemical_formula_structural       H16C24N4O8Br4
_chemical_formula_sum              "H16 C24 N4 O8 Br4"
_cell_length_a       9.245718686888182
_cell_length_b       9.787721220074443
_cell_length_c       7.266351287335251
_cell_angle_alpha    90.0
_cell_angle_beta     91.61020690610431
_cell_angle_gamma    90.0

_space_group_name_H-M_alt    "P 1"
_space_group_IT_number       1

loop_
  _space_group_symop_operation_xyz
  'x, y, z'

loop_
  _atom_site_type_symbol
  _atom_site_label
  _atom_site_symmetry_multiplicity
  _atom_site_fract_x
  _atom_site_fract_y
  _atom_site_fract_z
  _atom_site_occupancy
  H   H1        1.0  0.37597323323537923  0.22066498027858347  0.4278016973527113  1.0000
  H   H2        1.0  0.6240267667264751  0.22066498027858347  0.5721983021730297  1.0000
  H   H3        1.0  0.8759732325209431  0.7206649802747805  0.42780169724619205  1.0000
  H   H4        1.0  0.12402676744091135  0.7206649802747805  0.572198302279549  1.0000
  H   H5        1.0  0.6240267667264751  0.7793350197138107  0.5721983021730297  1.0000
  H   H6        1.0  0.37597323323537923  0.7793350197138107  0.4278016973527113  1.0000
  H   H7        1.0  0.12402676744091135  0.2793350197176136  0.572198302279549  1.0000
  H   H8        1.0  0.8759732325209431  0.2793350197176136  0.42780169724619205  1.0000
  H   H9        1.0  0.37587010727873876  0.22104242257765744  0.9346963922294542  1.0000
  H   H10       1.0  0.6241298926831156  0.22104242257765744  0.06530360729628679  1.0000
  H   H11       1.0  0.8758701065997676  0.7210424225738545  0.93469639349967  1.0000
  H   H12       1.0  0.12412989339755186  0.7210424225738545  0.06530360740280602  1.0000
  H   H13       1.0  0.6241298926831156  0.7789575774147367  0.06530360729628679  1.0000
  H   H14       1.0  0.37587010727873876  0.7789575774147367  0.9346963922294542  1.0000
  H   H15       1.0  0.12412989339755186  0.27895757741853966  0.06530360740280602  1.0000
  H   H16       1.0  0.8758701065997676  0.27895757741853966  0.93469639349967  1.0000
  C   C1        1.0  0.3639433927747065  0.0  0.4225796617150892  1.0000
  C   C2        1.0  0.636056607222613  0.0  0.5774203391873868  1.0000
  C   C3        1.0  0.8639433931416978  0.49999999999619704  0.4225796616021274  1.0000
  C   C4        1.0  0.13605660685562168  0.49999999999619704  0.5774203393003486  1.0000
  C   C5        1.0  0.4308851203873489  0.12512227846132765  0.46006255283443726  1.0000
  C   C6        1.0  0.5691148795745056  0.12512227846132765  0.5399374466913038  1.0000
  C   C7        1.0  0.9308851196729127  0.6251222784575248  0.460062552727918  1.0000
  C   C8        1.0  0.06911488028894171  0.6251222784575248  0.539937446797823  1.0000
  C   C9        1.0  0.5691148795745056  0.8748777215310665  0.5399374466913038  1.0000
  C   C10       1.0  0.4308851203873489  0.8748777215310665  0.46006255283443726  1.0000
  C   C11       1.0  0.06911488028894171  0.3748777215348694  0.539937446797823  1.0000
  C   C12       1.0  0.9308851196729127  0.3748777215348694  0.460062552727918  1.0000
  C   C13       1.0  0.4293186770128595  0.12412975019232918  0.9638688963341275  1.0000
  C   C14       1.0  0.5706813229489949  0.12412975019232918  0.03613110319161353  1.0000
  C   C15       1.0  0.9293186773798509  0.6241297501885262  0.9638688962211657  1.0000
  C   C16       1.0  0.0706813225820036  0.6241297501885262  0.03613110330457537  1.0000
  C   C17       1.0  0.5706813229489949  0.8758702498000649  0.03613110319161353  1.0000
  C   C18       1.0  0.4293186770128595  0.8758702498000649  0.9638688963341275  1.0000
  C   C19       1.0  0.0706813225820036  0.3758702498038679  0.03613110330457537  1.0000
  C   C20       1.0  0.9293186773798509  0.3758702498038679  0.9638688962211657  1.0000
  C   C21       1.0  0.3595990675343059  0.0  0.9286440840558197  1.0000
  C   C22       1.0  0.6404009324630136  0.0  0.07135591684665658  1.0000
  C   C23       1.0  0.8595990679012971  0.49999999999619704  0.9286440839428576  1.0000
  C   C24       1.0  0.14040093209602228  0.49999999999619704  0.07135591695961842  1.0000
  N   N1        1.0  0.21623045520887507  0.0  0.34321860420366684  1.0000
  N   N2        1.0  0.7837695447884445  0.0  0.6567813966988092  1.0000
  N   N3        1.0  0.7162304555758665  0.49999999999619704  0.343218604090705  1.0000
  N   N4        1.0  0.2837695444214531  0.49999999999619704  0.6567813968117711  1.0000
  O   O1        1.0  0.15698175451832444  0.11180300249619052  0.3120832091367617  1.0000
  O   O2        1.0  0.84301824544353  0.11180300249619052  0.6879167903889792  1.0000
  O   O3        1.0  0.6569817548853158  0.6118030024923875  0.3120832090237999  1.0000
  O   O4        1.0  0.3430182450765386  0.6118030024923875  0.6879167905019411  1.0000
  O   O5        1.0  0.84301824544353  0.8881969974962036  0.6879167903889792  1.0000
  O   O6        1.0  0.15698175451832444  0.8881969974962036  0.3120832091367617  1.0000
  O   O7        1.0  0.3430182450765386  0.3881969975000065  0.6879167905019411  1.0000
  O   O8        1.0  0.6569817548853158  0.3881969975000065  0.3120832090237999  1.0000
  Br  Br1       1.0  0.16541036615796204  0.0  0.833630463438736  1.0000
  Br  Br2       1.0  0.8345896338038924  0.0  0.16636953608700503  1.0000
  Br  Br3       1.0  0.6654103654435257  0.49999999999619704  0.8336304633322168  1.0000
  Br  Br4       1.0  0.33458963451832857  0.49999999999619704  0.16636953619352424  1.0000
