data_image0
_chemical_formula_structural       H48C52N4O12
_chemical_formula_sum              "H48 C52 N4 O12"
_cell_length_a       9.7537646548934
_cell_length_b       9.76113985111695
_cell_length_c       13.99798214277344
_cell_angle_alpha    90.01921787551518
_cell_angle_beta     74.86709134960105
_cell_angle_gamma    61.26092753900976

_space_group_name_H-M_alt    "P 1"
_space_group_IT_number       1

loop_
  _space_group_symop_operation_xyz
  'x, y, z'

loop_
  _atom_site_type_symbol
  _atom_site_label
  _atom_site_symmetry_multiplicity
  _atom_site_fract_x
  _atom_site_fract_y
  _atom_site_fract_z
  _atom_site_occupancy
  H   H1        1.0  0.8204139882633366  0.35895216865749874  0.4161769230465871  1.0000
  H   H2        1.0  0.17958567278798526  0.6410520869604864  0.5838227473287274  1.0000
  H   H3        1.0  0.18880040251689156  0.07434306866175035  0.31824506797161944  1.0000
  H   H4        1.0  0.8111999728507306  0.9256577139843623  0.6817550866635583  1.0000
  H   H5        1.0  0.8755271125627755  0.12126070614779275  0.9636063719103988  1.0000
  H   H6        1.0  0.12447259854979807  0.8787395439789659  0.036394053846098576  1.0000
  H   H7        1.0  0.6354104591865468  0.0887961814728785  0.028263075749047687  1.0000
  H   H8        1.0  0.3645893969978217  0.9112041182590626  0.9717377392639853  1.0000
  H   H9        1.0  0.47808890039086194  0.16719925461903226  0.21061369638254424  1.0000
  H   H10       1.0  0.5219118327273273  0.8328005585123335  0.7893872115133691  1.0000
  H   H11       1.0  0.5652461847964828  0.28507553927174345  0.32381031736583954  1.0000
  H   H12       1.0  0.4347544929897141  0.7149248781653891  0.6761903712440599  1.0000
  H   H13       1.0  0.9187524834402483  0.3500482995020675  0.9411057729966699  1.0000
  H   H14       1.0  0.0812474917660872  0.6499512256532392  0.05889447836353528  1.0000
  H   H15       1.0  0.15983021328575225  0.37855399624069275  0.8609521258029902  1.0000
  H   H16       1.0  0.8401698191312736  0.621445392914808  0.13904771095287208  1.0000
  H   H17       1.0  0.390603230557285  0.2806977590525491  0.9360761656314489  1.0000
  H   H18       1.0  0.609397223023354  0.7193014782100737  0.06392324089142656  1.0000
  H   H19       1.0  0.3733113927513165  0.15779702060209694  0.09112840434293257  1.0000
  H   H20       1.0  0.6266893826965049  0.8422025548074062  0.9088712188071023  1.0000
  H   H21       1.0  0.0249465173956032  0.011839486777871132  0.5892334885438881  1.0000
  H   H22       1.0  0.9750520693428135  0.9881618665117221  0.41076666506178366  1.0000
  H   H23       1.0  0.08188834736092253  0.06621375068367688  0.7329062847709616  1.0000
  H   H24       1.0  0.9181112461379434  0.9337863354793013  0.26709374115259327  1.0000
  H   H25       1.0  0.27322750738506535  0.17534187584231914  0.7184332014515759  1.0000
  H   H26       1.0  0.7267732622290941  0.8246569922394338  0.28156664298311573  1.0000
  H   H27       1.0  0.32997714415804225  0.15326998024085237  0.4010895295577403  1.0000
  H   H28       1.0  0.6700225587477201  0.8467296845193742  0.5989103283590593  1.0000
  H   H29       1.0  0.34892722365413575  0.3711378069463752  0.5774672871304076  1.0000
  H   H30       1.0  0.651071931101552  0.6288621639830426  0.42253242389178786  1.0000
  H   H31       1.0  0.4932417137853141  0.23164663998479765  0.4687784311212048  1.0000
  H   H32       1.0  0.5067580441820818  0.7683530331104357  0.5312212438614  1.0000
  H   H33       1.0  0.5106916114338426  0.1891855871209217  0.5903188816169622  1.0000
  H   H34       1.0  0.4893080005980863  0.8108147126386572  0.409681044925901  1.0000
  H   H35       1.0  0.9810410908799206  0.5264041832137125  0.5909835539951958  1.0000
  H   H36       1.0  0.018958877493166843  0.4736013083345091  0.4090173853820203  1.0000
  H   H37       1.0  0.9182533985355269  0.5521930495221508  0.765841739022565  1.0000
  H   H38       1.0  0.08175283945093469  0.44780231048295993  0.23415904581564317  1.0000
  H   H39       1.0  0.7239727068048882  0.46543898991864957  0.8646311572847533  1.0000
  H   H40       1.0  0.2760310590323546  0.5345594974578408  0.13536856844854533  1.0000
  H   H41       1.0  0.6876927091089637  0.32443884880344254  0.5837313538814701  1.0000
  H   H42       1.0  0.31230241508313417  0.6755735084870282  0.41626783687685764  1.0000
  H   H43       1.0  0.6345422828253318  0.25515385683403313  0.8388061886818551  1.0000
  H   H44       1.0  0.3654566382551775  0.7448482067739561  0.16119231352751348  1.0000
  H   H45       1.0  0.5522444710852754  0.26816388114877837  0.7371676070847789  1.0000
  H   H46       1.0  0.44775361762181  0.7318408702778123  0.26283065914337944  1.0000
  H   H47       1.0  0.46225198339811024  0.4355273629633975  0.8307602018810083  1.0000
  H   H48       1.0  0.5377468109365249  0.5644760843600712  0.16923879031550176  1.0000
  C   C1        1.0  0.8572593375578149  0.22635306458532078  0.10552898466927425  1.0000
  C   C2        1.0  0.1427409552560428  0.7736470737873166  0.8944714194485945  1.0000
  C   C3        1.0  0.805332361652753  0.16205942430075634  0.042440361697856185  1.0000
  C   C4        1.0  0.19466783734237084  0.8379406670279523  0.9575601681762496  1.0000
  C   C5        1.0  0.6698309551372397  0.14186544765444578  0.07939031536699659  1.0000
  C   C6        1.0  0.3301692717941456  0.858134637301415  0.9206104751740142  1.0000
  C   C7        1.0  0.5831592038317903  0.1838526104753104  0.18090474746123886  1.0000
  C   C8        1.0  0.41684140428913574  0.8161473811979466  0.8190961379947224  1.0000
  C   C9        1.0  0.6322287269795969  0.24864793712904992  0.24454241867999754  1.0000
  C   C10       1.0  0.36777187884586915  0.7513523610000811  0.7554582996359867  1.0000
  C   C11       1.0  0.7658180978673773  0.2726349791183349  0.2081040522910311  1.0000
  C   C12       1.0  0.23418238710754852  0.7273654013922926  0.7918964007732022  1.0000
  C   C13       1.0  0.8026253046069539  0.35310010361649696  0.28017340921506034  1.0000
  C   C14       1.0  0.19737535896274927  0.6469008489592756  0.7198265461964604  1.0000
  C   C15       1.0  0.007268885719750868  0.23717140976670403  0.061024704565976105  1.0000
  C   C16       1.0  0.9927314299321304  0.7628285667767957  0.9389755584307636  1.0000
  C   C17       1.0  0.02033492794192152  0.3046140730373661  0.9729669647135336  1.0000
  C   C18       1.0  0.979665227255737  0.6953855572737878  0.027033155817625963  1.0000
  C   C19       1.0  0.15646236589643964  0.32028300050928793  0.9273622971607103  1.0000
  C   C20       1.0  0.8435378066141948  0.6797163993611783  0.0726375590405236  1.0000
  C   C21       1.0  0.2841928007525389  0.2681538838263423  0.9700079742989093  1.0000
  C   C22       1.0  0.7158076046549611  0.7318455005867172  0.029991691572038348  1.0000
  C   C23       1.0  0.2744127950036461  0.20040026566057773  0.05723278768168636  1.0000
  C   C24       1.0  0.7255876421987013  0.7995995133031637  0.9427670897765404  1.0000
  C   C25       1.0  0.13925211850930772  0.18215346406770747  0.10219193627012084  1.0000
  C   C26       1.0  0.8607482128638675  0.8178466732942383  0.8978082657887516  1.0000
  C   C27       1.0  0.1453773943876914  0.09281249085826096  0.1888085384525727  1.0000
  C   C28       1.0  0.8546223729879544  0.9071889519484524  0.8111919848229396  1.0000
  C   C29       1.0  0.14255168677855615  0.08779782886359791  0.6625070380504459  1.0000
  C   C30       1.0  0.8574479013280005  0.9122023341069768  0.3374927372929693  1.0000
  C   C31       1.0  0.24652326436097352  0.14738392558958932  0.6527585513988408  1.0000
  C   C32       1.0  0.753476899939713  0.8526152486731494  0.34724135659490163  1.0000
  C   C33       1.0  0.3153582611652614  0.17446405964765846  0.5573914065550963  1.0000
  C   C34       1.0  0.6846414858453942  0.8255355774294799  0.4426087098216826  1.0000
  C   C35       1.0  0.278263038941419  0.13615872074501761  0.47591140533466475  1.0000
  C   C36       1.0  0.721736554526429  0.8638410463956201  0.5240885517059335  1.0000
  C   C37       1.0  0.17461218173489298  0.06982550982024227  0.48603863490679605  1.0000
  C   C38       1.0  0.825386581039621  0.9301750744980728  0.5139613439860169  1.0000
  C   C39       1.0  0.42402244509055276  0.2448743517847626  0.5469865097530942  1.0000
  C   C40       1.0  0.5759771615994747  0.7551254828963189  0.4530132804802792  1.0000
  C   C41       1.0  0.8605171175416981  0.5027619697549021  0.7316288103252462  1.0000
  C   C42       1.0  0.13948552053712096  0.49723684547345115  0.26837161572073337  1.0000
  C   C43       1.0  0.7566465224271275  0.45307907085400734  0.7834343111531131  1.0000
  C   C44       1.0  0.24335629721450883  0.5469211581079639  0.2165651205518688  1.0000
  C   C45       1.0  0.6914692735937784  0.3872745968869623  0.7304513221744705  1.0000
  C   C46       1.0  0.3085312884585364  0.6127283338870791  0.269547956265758  1.0000
  C   C47       1.0  0.7331909793416221  0.3764001929970194  0.6273092167548575  1.0000
  C   C48       1.0  0.26680844421931177  0.6236068728450672  0.3726899089704698  1.0000
  C   C49       1.0  0.8404475663976663  0.42861977669978374  0.574448579045234  1.0000
  C   C50       1.0  0.1595509937030992  0.5713861914870052  0.42555123133376943  1.0000
  C   C51       1.0  0.5786092122719674  0.33275858277580717  0.7870418799147374  1.0000
  C   C52       1.0  0.4213901554947584  0.6672450098356483  0.21295656960357545  1.0000
  N   N1        1.0  0.1079299383961196  0.05208789884047556  0.5812788637665378  1.0000
  N   N2        1.0  0.8920690425893711  0.9479128267361339  0.41872130518659395  1.0000
  N   N3        1.0  0.8993843244940188  0.49070629438179586  0.6305414590988133  1.0000
  N   N4        1.0  0.10061726703731365  0.5092974114072335  0.369458771497211  1.0000
  O   O1        1.0  0.7819729422954531  0.3086636978184712  0.37044080436602494  1.0000
  O   O2        1.0  0.2180277588489263  0.6913384178993125  0.6295595063332389  1.0000
  O   O3        1.0  0.8445516930899869  0.4530068493100548  0.2587013669696229  1.0000
  O   O4        1.0  0.1554493584093297  0.5469938659441702  0.7412978714784603  1.0000
  O   O5        1.0  0.20816740284833457  0.1261516956160783  0.2531350041713509  1.0000
  O   O6        1.0  0.7918339488216167  0.8738479859710517  0.7468650124074803  1.0000
  O   O7        1.0  0.09938971318770345  0.9942424566190328  0.19789177123387622  1.0000
  O   O8        1.0  0.9006075543521621  0.005760170588528387  0.8021097457658414  1.0000
  O   O9        1.0  0.14150218665823372  0.023988494716111832  0.41326044957092667  1.0000
  O   O10       1.0  0.8584943084350646  0.9760134250317863  0.5867405105218559  1.0000
  O   O11       1.0  0.8865995583711839  0.42048965154658646  0.4788281788569496  1.0000
  O   O12       1.0  0.11339717083617175  0.5795206497757536  0.5211717119796794  1.0000
