data_image0
_chemical_formula_structural       H52C64N10O6F6S2
_chemical_formula_sum              "H52 C64 N10 O6 F6 S2"
_cell_length_a       8.221140886675352
_cell_length_b       12.175568256564326
_cell_length_c       14.181591765846976
_cell_angle_alpha    88.80294247025866
_cell_angle_beta     88.52149534965051
_cell_angle_gamma    84.54538186958659

_space_group_name_H-M_alt    "P 1"
_space_group_IT_number       1

loop_
  _space_group_symop_operation_xyz
  'x, y, z'

loop_
  _atom_site_type_symbol
  _atom_site_label
  _atom_site_symmetry_multiplicity
  _atom_site_fract_x
  _atom_site_fract_y
  _atom_site_fract_z
  _atom_site_occupancy
  H   H1        1.0  0.41854445835416776  0.9232032615605326  0.22802126350217228  1.0000
  H   H2        1.0  0.5814555422785821  0.07679673860948982  0.7719787362936905  1.0000
  H   H3        1.0  0.5784278018502433  0.07859015067608771  0.465166281090484  1.0000
  H   H4        1.0  0.4215721975659226  0.9214098494945276  0.5348337187084358  1.0000
  H   H5        1.0  0.5938272395039704  0.27927146715521667  0.4564673435784847  1.0000
  H   H6        1.0  0.4061727612198524  0.7207285321752178  0.5435326569235257  1.0000
  H   H7        1.0  0.7364071796702184  0.256414201872836  0.16210675284682674  1.0000
  H   H8        1.0  0.26359281974594767  0.7435857982977794  0.837893246952093  1.0000
  H   H9        1.0  0.7243286287670716  0.05297331273172965  0.17091158057319975  1.0000
  H   H10       1.0  0.27567137186567836  0.9470266874382928  0.829088419222663  1.0000
  H   H11       1.0  0.6010300044707224  0.5639393409551078  0.5235529955584705  1.0000
  H   H12       1.0  0.3989699961620275  0.4360606592149146  0.47644700423739217  1.0000
  H   H13       1.0  0.6873772001889794  0.5090981044899964  0.6849271142544041  1.0000
  H   H14       1.0  0.31262279922718683  0.49090189568061887  0.31507288554451557  1.0000
  H   H15       1.0  0.0573140279487935  0.27195966077674444  0.5694885004585547  1.0000
  H   H16       1.0  0.9426859726839564  0.7280403393932778  0.430511499337308  1.0000
  H   H17       1.0  0.9672923200670233  0.3230885383276974  0.408877752882783  1.0000
  H   H18       1.0  0.032707679349142746  0.6769114618429178  0.5911222469161367  1.0000
  H   H19       1.0  0.9567369486858678  0.4179256821485155  0.7787594003490856  1.0000
  H   H20       1.0  0.043263050730298486  0.5820743180220997  0.22124059944983415  1.0000
  H   H21       1.0  0.023698692419789148  0.2836488526844369  0.7385997358218439  1.0000
  H   H22       1.0  0.9763013082129609  0.7163511474855855  0.26140026397401883  1.0000
  H   H23       1.0  0.8166562166928788  0.3165017991371925  0.7751988013447595  1.0000
  H   H24       1.0  0.18334378393987114  0.6834982010328298  0.22480119845110316  1.0000
  H   H25       1.0  0.7090154875948081  0.6547654668730021  0.3401125104955492  1.0000
  H   H26       1.0  0.29098451193651503  0.34523453247254665  0.6598874893040296  1.0000
  H   H27       1.0  0.36567402755805223  0.9223368180917181  0.34517373315247657  1.0000
  H   H28       1.0  0.6343259730746977  0.07766318207830421  0.6548262666433862  1.0000
  H   H29       1.0  0.911682637761206  0.07721145883893697  0.0006074974124098505  1.0000
  H   H30       1.0  0.0883173616549601  0.9227885413316783  0.9993925023865099  1.0000
  H   H31       1.0  0.7257479728216676  0.22974060355362963  0.9328401537797241  1.0000
  H   H32       1.0  0.27425202659449843  0.7702593966169855  0.06715984601919567  1.0000
  H   H33       1.0  0.7590101627744397  0.4246370503198054  0.9750366496387383  1.0000
  H   H34       1.0  0.24098983785831032  0.575362949850217  0.02496335015712443  1.0000
  H   H35       1.0  0.9802863089365746  0.46488532205590494  0.08071971446184317  1.0000
  H   H36       1.0  0.019713690479591303  0.5351146781147104  0.9192802853370766  1.0000
  H   H37       1.0  0.24356147703463898  0.4011925201818039  0.1551269588035616  1.0000
  H   H38       1.0  0.756438523598111  0.5988074799882185  0.8448730409923011  1.0000
  H   H39       1.0  0.33952462359536123  0.2954651759597069  0.28658113082465114  1.0000
  H   H40       1.0  0.6604753770373888  0.7045348242103155  0.7134188689712115  1.0000
  H   H41       1.0  0.2451028876988266  0.1895865750768459  0.4219051225246122  1.0000
  H   H42       1.0  0.7548971117173394  0.8104134250937693  0.5780948772743074  1.0000
  H   H43       1.0  0.13506261523809307  0.021481382870268993  0.48572964944535657  1.0000
  H   H44       1.0  0.8649373841539886  0.9785186172858249  0.5142703510590517  1.0000
  H   H45       1.0  0.02188084506949483  0.8895225925900526  0.37693025682956843  1.0000
  H   H46       1.0  0.9781191556543278  0.11047740674038194  0.623069743672442  1.0000
  H   H47       1.0  0.03120113911043158  0.9259777653686477  0.20368373179913143  1.0000
  H   H48       1.0  0.9687988604208917  0.07402223397690094  0.7963162680004474  1.0000
  H   H49       1.0  0.42574429109723677  0.060619033441649414  0.9446101273103892  1.0000
  H   H50       1.0  0.5742557083189292  0.9393809667289659  0.055389872488530625  1.0000
  H   H51       1.0  0.24439684042960041  0.14959474839939726  0.9504544442111632  1.0000
  H   H52       1.0  0.7556031589865656  0.8504052517712178  0.049545555587756536  1.0000
  C   C1        1.0  0.6542458006163776  0.05324911291810077  0.3190072278075752  1.0000
  C   C2        1.0  0.3457542000163725  0.9467508872519215  0.6809927719882874  1.0000
  C   C3        1.0  0.6172049938951486  0.1164801815064481  0.39916911401978644  1.0000
  C   C4        1.0  0.382795005496933  0.8835198186496459  0.6008308864846218  1.0000
  C   C5        1.0  0.6246626789106013  0.23034595430559407  0.3941341350451353  1.0000
  C   C6        1.0  0.37533732050556484  0.7696540458650212  0.6058658647537845  1.0000
  C   C7        1.0  0.6694789974030886  0.2796574924893861  0.30844318648743496  1.0000
  C   C8        1.0  0.3305210032296614  0.7203425076806363  0.6915568133084278  1.0000
  C   C9        1.0  0.7047690965618902  0.2160485812548624  0.22816702051779145  1.0000
  C   C10       1.0  0.2952309029694329  0.7839514180906865  0.7718329792817874  1.0000
  C   C11       1.0  0.6967686801143551  0.10277348476568952  0.23322188083948062  1.0000
  C   C12       1.0  0.30323131941696807  0.8972265145798591  0.7667781189600983  1.0000
  C   C13       1.0  0.713688498241063  0.4735972893519042  0.36043787992760595  1.0000
  C   C14       1.0  0.2863115023916871  0.5264027108181183  0.6395621198682566  1.0000
  C   C15       1.0  0.7751782461839374  0.4459673437230357  0.4549331468866825  1.0000
  C   C16       1.0  0.22482175320814432  0.5540326564330581  0.5450668536177258  1.0000
  C   C17       1.0  0.7012595116647278  0.49989564616535337  0.5338159004643924  1.0000
  C   C18       1.0  0.29874048786659546  0.5001043531801954  0.46618409933518656  1.0000
  C   C19       1.0  0.7503041993666838  0.4688310733005094  0.6244241386486481  1.0000
  C   C20       1.0  0.24969580126606616  0.531168926869513  0.37557586114721453  1.0000
  C   C21       1.0  0.876316727491895  0.3847500772370153  0.6395363794803539  1.0000
  C   C22       1.0  0.12368327311677055  0.6152499229184857  0.36046362102099727  1.0000
  C   C23       1.0  0.9550193189156678  0.3350542398791701  0.5601801271139747  1.0000
  C   C24       1.0  0.04498068050049834  0.6649457602914453  0.43981987268494516  1.0000
  C   C25       1.0  0.9052301320159096  0.36437278416880936  0.4691559525953393  1.0000
  C   C26       1.0  0.09476986859275599  0.6356272159866915  0.5308440479060119  1.0000
  C   C27       1.0  0.9216664978472285  0.3484842850074089  0.737926208052094  1.0000
  C   C28       1.0  0.07833350278552141  0.6515157151626135  0.26207379174376877  1.0000
  C   C29       1.0  0.6372931925015695  0.5492735930363076  0.2228688615384676  1.0000
  C   C30       1.0  0.3627068081311806  0.45072640713371476  0.777131138257395  1.0000
  C   C31       1.0  0.6886563421946971  0.574747328983301  0.313367107409674  1.0000
  C   C32       1.0  0.31134365843805295  0.4252526711867213  0.6866328923861887  1.0000
  C   C33       1.0  0.6050131727942168  0.6240351206678711  0.13951590778298614  1.0000
  C   C34       1.0  0.3949868278385331  0.37596487950215124  0.8604840920128765  1.0000
  C   C35       1.0  0.049105338317232225  0.18506608237911076  0.07796600686480507  1.0000
  C   C36       1.0  0.9508946612140908  0.8149339169664379  0.9220339929347737  1.0000
  C   C37       1.0  0.9262735601465163  0.16256600926906709  0.017044334208846247  1.0000
  C   C38       1.0  0.0737264392696498  0.8374339909015481  0.9829556655900734  1.0000
  C   C39       1.0  0.8225099264667597  0.24840675210113475  0.9791169985679405  1.0000
  C   C40       1.0  0.17749007428114746  0.7515932472438211  0.020883001228581215  1.0000
  C   C41       1.0  0.8424268927270843  0.3573694626995073  0.002461577757780259  1.0000
  C   C42       1.0  0.15757310666499735  0.6426305374565865  0.997538422746628  1.0000
  C   C43       1.0  0.9662486705351432  0.3798554686491157  0.062210661198078256  1.0000
  C   C44       1.0  0.033751330073522365  0.6201445315063852  0.9377893393032729  1.0000
  C   C45       1.0  0.07213215980573325  0.29441579927449046  0.10187570196112952  1.0000
  C   C46       1.0  0.927867840942174  0.7055842000704653  0.8981242978353923  1.0000
  C   C47       1.0  0.19778420021676646  0.3204768547194116  0.1660857611006547  1.0000
  C   C48       1.0  0.8022157991753152  0.6795231454366822  0.8339142394037535  1.0000
  C   C49       1.0  0.2538182175589366  0.2595944729180606  0.24160047389343361  1.0000
  C   C50       1.0  0.7461817831648863  0.7404055264123738  0.7583995266085767  1.0000
  C   C51       1.0  0.19846961108032427  0.1560153159740462  0.27625680014912185  1.0000
  C   C52       1.0  0.8015303883358419  0.8439846841965691  0.7237431996497979  1.0000
  C   C53       1.0  0.19699285794754284  0.1325383268195937  0.3738837608772248  1.0000
  C   C54       1.0  0.8030071426611227  0.8674616733359072  0.6261162396241264  1.0000
  C   C55       1.0  0.1341374243190675  0.03758102286509322  0.40990497515566393  1.0000
  C   C56       1.0  0.8658625762895982  0.9624189772904077  0.5900950253456873  1.0000
  C   C57       1.0  0.07142673708776096  0.963716528723416  0.34909071690572907  1.0000
  C   C58       1.0  0.928573263544989  0.036283471446606444  0.6509092828901337  1.0000
  C   C59       1.0  0.07639318707699944  0.9837785339868407  0.25190587059810954  1.0000
  C   C60       1.0  0.9236068123391667  0.016221466183774565  0.7480941292008102  1.0000
  C   C61       1.0  0.14140703698731213  0.07798758782551536  0.2160498276630152  1.0000
  C   C62       1.0  0.8585929636213535  0.9220124123299854  0.783950172838336  1.0000
  C   C63       1.0  0.2931951293172548  0.05198376398236755  0.0686436213893433  1.0000
  C   C64       1.0  0.7068048713154952  0.948016236187655  0.9313563784065194  1.0000
  N   N1        1.0  0.44901279670919597  0.8927683744287469  0.294895548650191  1.0000
  N   N2        1.0  0.5509872028221271  0.10723162491680185  0.7051044511493878  1.0000
  N   N3        1.0  0.6264998506838956  0.4413392405453257  0.21320092404979907  1.0000
  N   N4        1.0  0.3735001487322705  0.5586607596252895  0.7867990757491207  1.0000
  N   N5        1.0  0.6728849810231267  0.39579388821891015  0.2974113311506603  1.0000
  N   N6        1.0  0.32711501850819674  0.6042061111266386  0.7025886686489186  1.0000
  N   N7        1.0  0.15448354979711376  0.09613777689018975  0.11627526631798273  1.0000
  N   N8        1.0  0.8455164496190525  0.9038622232804255  0.8837247334809369  1.0000
  N   N9        1.0  0.3148519820679687  0.08465477251808011  0.9783375806736384  1.0000
  N   N10       1.0  0.6851480185647812  0.9153452276519422  0.02166241912222427  1.0000
  O   O1        1.0  0.6558536684316721  0.8695464004836587  0.41898853004014924  1.0000
  O   O2        1.0  0.34414633096040953  0.13045359967243494  0.581011470464259  1.0000
  O   O3        1.0  0.7420725249069727  0.8600463873148227  0.24856083330669565  1.0000
  O   O4        1.0  0.2579274744851089  0.13995361284127117  0.7514391671977125  1.0000
  O   O5        1.0  0.39022916781758027  0.9804991547123616  0.10921362816937058  1.0000
  O   O6        1.0  0.6097708328151697  0.019500845457660683  0.8907863716264921  1.0000
  F   F1        1.0  0.5420572588658662  0.5720784343051326  0.06675908010806965  1.0000
  F   F2        1.0  0.4579427417668838  0.42792156586488983  0.933240919687793  1.0000
  F   F3        1.0  0.4983581526467466  0.7134486910468052  0.1605237367615285  1.0000
  F   F4        1.0  0.5016418468845766  0.28655130829874353  0.8394762630380503  1.0000
  F   F5        1.0  0.7461675282785433  0.6646848426203171  0.10509508920454416  1.0000
  F   F6        1.0  0.2538324723542066  0.33531515754970526  0.8949049105913186  1.0000
  S   S1        1.0  0.6357621780896172  0.9089962757688028  0.322300798637734  1.0000
  S   S2        1.0  0.3642378225190485  0.09100372438669795  0.6776992018636172  1.0000
