data_image0
_chemical_formula_structural       H42C58N18S2
_chemical_formula_sum              "H42 C58 N18 S2"
_cell_length_a       8.341732287383019
_cell_length_b       8.503180941025231
_cell_length_c       17.245344016944422
_cell_angle_alpha    88.56378977503623
_cell_angle_beta     83.9861131301714
_cell_angle_gamma    84.61751515220426

_space_group_name_H-M_alt    "P 1"
_space_group_IT_number       1

loop_
  _space_group_symop_operation_xyz
  'x, y, z'

loop_
  _atom_site_type_symbol
  _atom_site_label
  _atom_site_symmetry_multiplicity
  _atom_site_fract_x
  _atom_site_fract_y
  _atom_site_fract_z
  _atom_site_occupancy
  H   H1        1.0  0.7670278670123328  0.8643335266074873  0.9816740044124902  1.0000
  H   H2        1.0  0.23297213292837513  0.1356664726108048  0.01832599602720595  1.0000
  H   H3        1.0  0.9876893079452489  0.8342282475275438  0.8717392899977839  1.0000
  H   H4        1.0  0.012310691875632204  0.1657717528783841  0.12826070985654184  1.0000
  H   H5        1.0  0.10855892431052117  0.07013129244335543  0.8125262315268239  1.0000
  H   H6        1.0  0.89144107551036  0.9298687079625724  0.187473768327502  1.0000
  H   H7        1.0  0.015921751405064365  0.33848057506451457  0.8617963712576159  1.0000
  H   H8        1.0  0.9840782485356436  0.6615194241537774  0.13820362918208026  1.0000
  H   H9        1.0  0.7142922109449489  0.6176738660452196  0.9451608011705399  1.0000
  H   H10       1.0  0.2857077889957591  0.38232613317307235  0.05483919926915631  1.0000
  H   H11       1.0  0.9210631052359081  0.5425614133825589  0.9227719064583276  1.0000
  H   H12       1.0  0.07893689470098193  0.457438585842017  0.07722809340162799  1.0000
  H   H13       1.0  0.8478998553593331  0.6044803501691646  0.020090368108247564  1.0000
  H   H14       1.0  0.15210014457755677  0.3955196490554113  0.9799096317517081  1.0000
  H   H15       1.0  0.992344319072096  0.54142065903263  0.35916833882720145  1.0000
  H   H16       1.0  0.007655680748785175  0.45857934137329787  0.6408316610271245  1.0000
  H   H17       1.0  0.9009342451345119  0.8143235539258112  0.4061549262909256  1.0000
  H   H18       1.0  0.09906575468636929  0.18567644648011666  0.5938450735634003  1.0000
  H   H19       1.0  0.051425340936254525  0.041634936376571355  0.35924695172093285  1.0000
  H   H20       1.0  0.9485746588846267  0.9583650640293565  0.6407530481333931  1.0000
  H   H21       1.0  0.2940144550395102  0.006258392957528846  0.26145569050128475  1.0000
  H   H22       1.0  0.7059855447813709  0.9937416074483988  0.7385443093530412  1.0000
  H   H23       1.0  0.6260418203255937  0.7250099975301619  0.13919417872434076  1.0000
  H   H24       1.0  0.3739581794952873  0.2749900028757659  0.8608058211299852  1.0000
  H   H25       1.0  0.544087736002281  0.885476660949527  0.20155725029302884  1.0000
  H   H26       1.0  0.455912263938427  0.11452333826876498  0.7984427501466673  1.0000
  H   H27       1.0  0.4663225376466691  0.860173505521751  0.10976897266189152  1.0000
  H   H28       1.0  0.5336774621742119  0.13982649488417684  0.8902310271924344  1.0000
  H   H29       1.0  0.1603550139668284  0.29930459635006096  0.2070614554845552  1.0000
  H   H30       1.0  0.8396449858540528  0.7006954040558668  0.7929385443697706  1.0000
  H   H31       1.0  0.15683623641322308  0.3185303410470923  0.3104392974167077  1.0000
  H   H32       1.0  0.8431637635236667  0.6814696581774835  0.6895607024432479  1.0000
  H   H33       1.0  0.3426409703620453  0.2545486783960867  0.2524517830067756  1.0000
  H   H34       1.0  0.6573590294588357  0.7454513220098411  0.7475482168475504  1.0000
  H   H35       1.0  0.7035143455762571  0.6596111319623934  0.30062426028279937  1.0000
  H   H36       1.0  0.2964856543606327  0.34038886726218254  0.6993757395771563  1.0000
  H   H37       1.0  0.5324086754389623  0.8500069879495831  0.3830077768033442  1.0000
  H   H38       1.0  0.4675913243857367  0.14999301245006083  0.6169922236307223  1.0000
  H   H39       1.0  0.2540281019833267  0.47193139827919456  0.4822287675860704  1.0000
  H   H40       1.0  0.7459718990425043  0.5280686021316426  0.5177712322055907  1.0000
  H   H41       1.0  0.42595230713434606  0.2820582656783479  0.4014487480675097  1.0000
  H   H42       1.0  0.5740476928025438  0.7179417335462279  0.598551251792446  1.0000
  C   C1        1.0  0.6600472330847624  0.36685863009592573  0.04852647026220535  1.0000
  C   C2        1.0  0.3399527679410685  0.6331413703149115  0.9514735295294557  1.0000
  C   C3        1.0  0.8409406667381728  0.25139197122629275  0.9509159715678523  1.0000
  C   C4        1.0  0.15905933308270837  0.748608029179635  0.049084028286473576  1.0000
  C   C5        1.0  0.7709306041567987  0.1171271112036019  0.9841966240401565  1.0000
  C   C6        1.0  0.22906939566408244  0.8828728892023259  0.015803375814169338  1.0000
  C   C7        1.0  0.8216153503650421  0.9669036240880362  0.9555668825169656  1.0000
  C   C8        1.0  0.17838464957184785  0.033096375136539576  0.04443311734298991  1.0000
  C   C9        1.0  0.9444832990215912  0.9511519814604391  0.894004424176549  1.0000
  C   C10       1.0  0.05551670091529885  0.04884801776413663  0.10599557568340655  1.0000
  C   C11       1.0  0.014225861887968707  0.0842184997679377  0.8611791381116426  1.0000
  C   C12       1.0  0.985774138048921  0.9157814994566382  0.138820861748313  1.0000
  C   C13       1.0  0.9631255152200401  0.23544461860598673  0.8887285126005295  1.0000
  C   C14       1.0  0.036874484604659113  0.7645553817936572  0.11127148783353687  1.0000
  C   C15       1.0  0.8178887022691987  0.5483399634593028  0.967571928128196  1.0000
  C   C16       1.0  0.1821112975516824  0.45166003694662493  0.03242807172613007  1.0000
  C   C17       1.0  0.3929267540134946  0.5387676251976748  0.19182473689725477  1.0000
  C   C18       1.0  0.6070732459233954  0.46123237402690115  0.8081752629627009  1.0000
  C   C19       1.0  0.2744723950235494  0.7552717492536047  0.2540033562879835  1.0000
  C   C20       1.0  0.7255276060022815  0.24472825115723254  0.7459966435036777  1.0000
  C   C21       1.0  0.19020751456053459  0.6244711224939767  0.2819276895171798  1.0000
  C   C22       1.0  0.8097924852603465  0.37552887791195094  0.7180723103371461  1.0000
  C   C23       1.0  0.054870047324051  0.6425788453162777  0.33702171931758573  1.0000
  C   C24       1.0  0.9451299525006482  0.3574211550833661  0.6629782811164807  1.0000
  C   C25       1.0  0.006366127377046616  0.7950880602829488  0.3632952231175823  1.0000
  C   C26       1.0  0.9936338724476524  0.2049119401166951  0.6367047773164841  1.0000
  C   C27       1.0  0.09170529540930897  0.9247436334377903  0.33644383325865634  1.0000
  C   C28       1.0  0.9082947044115721  0.07525636696813749  0.6635561665956696  1.0000
  C   C29       1.0  0.22743293815747487  0.9067421364244951  0.281828065335126  1.0000
  C   C30       1.0  0.772567061783233  0.09325786279379701  0.7181719351045702  1.0000
  C   C31       1.0  0.516591215749518  0.7987997947157827  0.1599105995079117  1.0000
  C   C32       1.0  0.4834087841873718  0.2012002045087933  0.8400894003520438  1.0000
  C   C33       1.0  0.22915970959479845  0.33099061779829575  0.2542819131746986  1.0000
  C   C34       1.0  0.7708402902260826  0.6690093826076322  0.7457180866796272  1.0000
  C   C35       1.0  0.5756106209113455  0.4561677698038075  0.3421319459504255  1.0000
  C   C36       1.0  0.42438937902554447  0.5438322294207684  0.65786805390953  1.0000
  C   C37       1.0  0.6043644724852298  0.6189843399385347  0.3400263907793192  1.0000
  C   C38       1.0  0.39563552733565127  0.38101566046739305  0.6599736090750068  1.0000
  C   C39       1.0  0.5083175896457183  0.7262651447685521  0.38641042478234366  1.0000
  C   C40       1.0  0.49168241017516284  0.2737348556373758  0.6135895750719823  1.0000
  C   C41       1.0  0.3771011649293583  0.6774357873514761  0.4384679998063006  1.0000
  C   C42       1.0  0.6228988361002907  0.32256421305307714  0.561532000565101  1.0000
  C   C43       1.0  0.3517006809870044  0.5135189587551469  0.44227366580777366  1.0000
  C   C44       1.0  0.6482993188376946  0.4864810416444971  0.5577263346262927  1.0000
  C   C45       1.0  0.44853625353342375  0.40628942153746594  0.3962471732932723  1.0000
  C   C46       1.0  0.551463747612234  0.5937105776857355  0.603752827083759  1.0000
  C   C47       1.0  0.6675042565204182  0.347662469777168  0.28950965163478387  1.0000
  C   C48       1.0  0.33249574330046283  0.6523375306287598  0.7104903482195419  1.0000
  C   C49       1.0  0.7862134182042168  0.39588907962211106  0.23239565743163096  1.0000
  C   C50       1.0  0.21378658162048236  0.6041109207775328  0.7676043430024356  1.0000
  C   C51       1.0  0.6481354665600225  0.18444884008979925  0.2918499096350142  1.0000
  C   C52       1.0  0.35186453326467654  0.8155511603098448  0.7081500907990522  1.0000
  C   C53       1.0  0.2756504608711827  0.7887157103043658  0.4852982957185064  1.0000
  C   C54       1.0  0.7243495402706569  0.21128428892511936  0.5147017040787844  1.0000
  C   C55       1.0  0.2961671864806824  0.9517835579444058  0.4826684112718245  1.0000
  C   C56       1.0  0.7038328133401988  0.048216442461521916  0.5173315885825014  1.0000
  C   C57       1.0  0.14878228676956143  0.7412680278882136  0.5385829926991639  1.0000
  C   C58       1.0  0.8512177131673284  0.2587319713363624  0.4614170071607916  1.0000
  N   N1        1.0  0.775046922242655  0.389581447006136  0.9879097718450373  1.0000
  N   N2        1.0  0.22495307757822597  0.6104185533997918  0.012090228009288662  1.0000
  N   N3        1.0  0.39913751333096964  0.699605172863026  0.19955478693318063  1.0000
  N   N4        1.0  0.6008624864937294  0.3003948275366179  0.8004452135008859  1.0000
  N   N5        1.0  0.2685967704425968  0.49355203609879794  0.24453647103454068  1.0000
  N   N6        1.0  0.7314032294981111  0.5064479631194941  0.7554635294051555  1.0000
  N   N7        1.0  0.5860489917758259  0.4843565165082947  0.09006632618498779  1.0000
  N   N8        1.0  0.41395100804505514  0.515643483897633  0.9099336736693381  1.0000
  N   N9        1.0  0.477171645447101  0.4315895155937344  0.1464057382128685  1.0000
  N   N10       1.0  0.5228283543775981  0.5684104848059095  0.8535942622211979  1.0000
  N   N11       1.0  0.8824250948744292  0.4352948930218166  0.1829349710775588  1.0000
  N   N12       1.0  0.11757490506246078  0.5647051062027594  0.8170650287823968  1.0000
  N   N13       1.0  0.6349246873203728  0.04832139653058274  0.292972616982009  1.0000
  N   N14       1.0  0.36507531261651716  0.9516786026939934  0.7070273828779466  1.0000
  N   N15       1.0  0.31031822358804223  0.08763673015756702  0.4812347564427356  1.0000
  N   N16       1.0  0.6896817763488476  0.9123632690670088  0.5187652434172199  1.0000
  N   N17       1.0  0.044864700654615404  0.7019580613731365  0.5839367180598967  1.0000
  N   N18       1.0  0.9551352991700839  0.29804193902650733  0.41606328237416984  1.0000
  S   S1        1.0  0.6256435348232403  0.16692556328674374  0.06253945025418006  1.0000
  S   S2        1.0  0.3743564650014587  0.8330744371129002  0.9374605501798863  1.0000
