data_image0
_chemical_formula_structural       H14C10N2Cl4
_chemical_formula_sum              "H14 C10 N2 Cl4"
_cell_length_a       4.593169988720258
_cell_length_b       7.7028038851846565
_cell_length_c       9.944418905700655
_cell_angle_alpha    91.99653707886712
_cell_angle_beta     97.79754690061229
_cell_angle_gamma    90.56108452899615

_space_group_name_H-M_alt    "P 1"
_space_group_IT_number       1

loop_
  _space_group_symop_operation_xyz
  'x, y, z'

loop_
  _atom_site_type_symbol
  _atom_site_label
  _atom_site_symmetry_multiplicity
  _atom_site_fract_x
  _atom_site_fract_y
  _atom_site_fract_z
  _atom_site_occupancy
  H   H1        1.0  0.03745758584591507  0.5570184774589967  0.724823192766813  1.0000
  H   H2        1.0  0.9625424154032707  0.4429815226968143  0.27517680651222337  1.0000
  H   H3        1.0  0.7565923889211082  0.4099623776076075  0.8932382891610623  1.0000
  H   H4        1.0  0.24340761043430256  0.5900376225974676  0.10676171112711558  1.0000
  H   H5        1.0  0.7509391752069594  0.08350830365959068  0.8938228537247322  1.0000
  H   H6        1.0  0.2490608238632011  0.9164916964950527  0.10617714554781803  1.0000
  H   H7        1.0  0.019948208872598603  0.9165713519311133  0.728549817235613  1.0000
  H   H8        1.0  0.9800517926618373  0.0834286482751294  0.271450183059051  1.0000
  H   H9        1.0  0.2924101126617934  0.086109824075693  0.5696897560260582  1.0000
  H   H10       1.0  0.7075898885681825  0.9138901747819408  0.43031024325533285  1.0000
  H   H11       1.0  0.28606938167433466  0.38503398607718536  0.5815866592482755  1.0000
  H   H12       1.0  0.7139306176810761  0.6149660141278896  0.41841334103990235  1.0000
  H   H13       1.0  0.4833078064629167  0.27000881466140786  0.23327125059408627  1.0000
  H   H14       1.0  0.5166921950715192  0.7299911855448348  0.7667287497005776  1.0000
  C   C1        1.0  0.023613335427758692  0.4169234715024896  0.7329939248646365  1.0000
  C   C2        1.0  0.9763866639276523  0.5830765287025854  0.2670060754235413  1.0000
  C   C3        1.0  0.8706890607206235  0.3330547186418223  0.8232646345819017  1.0000
  C   C4        1.0  0.1293109386347876  0.6669452815632528  0.17673536570627638  1.0000
  C   C5        1.0  0.8686035619151536  0.15175551007946886  0.8230394807265493  1.0000
  C   C6        1.0  0.1313964374402572  0.8482444901256062  0.1769605195616285  1.0000
  C   C7        1.0  0.017310676583873467  0.05774909933323927  0.7315975977913094  1.0000
  C   C8        1.0  0.9826893224862872  0.9422509008214042  0.2684024014812409  1.0000
  C   C9        1.0  0.16864835860639651  0.14714456422205513  0.6438447440581974  1.0000
  C   C10       1.0  0.8313516429088298  0.8528554346860104  0.35615525623882116  1.0000
  N   N1        1.0  0.1686889909412243  0.3221412713554118  0.6479525058425148  1.0000
  N   N2        1.0  0.8313110105932116  0.6778587288508308  0.352047494452149  1.0000
  Cl  Cl1       1.0  0.565166632267843  0.29056690275468744  0.4105248658906315  1.0000
  Cl  Cl2       1.0  0.4348333670683581  0.7094330961522105  0.5894751343999011  1.0000
  Cl  Cl3       1.0  0.4245906943665076  0.25497721831701897  0.08978534895978098  1.0000
  Cl  Cl4       1.0  0.575409304703653  0.7450227818376245  0.9102146503127694  1.0000
