data_image0
_chemical_formula_structural       H20C44O6Cl8
_chemical_formula_sum              "H20 C44 O6 Cl8"
_cell_length_a       9.086690408167865
_cell_length_b       7.016194759246928
_cell_length_c       14.392698465722038
_cell_angle_alpha    90.0
_cell_angle_beta     95.39215455428052
_cell_angle_gamma    90.0

_space_group_name_H-M_alt    "P 1"
_space_group_IT_number       1

loop_
  _space_group_symop_operation_xyz
  'x, y, z'

loop_
  _atom_site_type_symbol
  _atom_site_label
  _atom_site_symmetry_multiplicity
  _atom_site_fract_x
  _atom_site_fract_y
  _atom_site_fract_z
  _atom_site_occupancy
  H   H1        1.0  0.030240710566502432  0.29616248141649815  0.08007744959840271  1.0000
  H   H2        1.0  0.9697592887107357  0.7961624814701649  0.9199225504246531  1.0000
  H   H3        1.0  0.24092381704199323  0.234093188168039  0.20122801494753892  1.0000
  H   H4        1.0  0.7590761833353862  0.7340931882217058  0.7987719850730792  1.0000
  H   H5        1.0  0.2057288598642181  0.28324135777173054  0.3692375570560245  1.0000
  H   H6        1.0  0.7942711405131612  0.7832413578253973  0.6307624429645936  1.0000
  H   H7        1.0  0.9677612377259391  0.3917381991680926  0.4169375526589992  1.0000
  H   H8        1.0  0.03223876155129908  0.8917381992217592  0.5830624473640565  1.0000
  H   H9        1.0  0.7753587999375535  0.4892261329371112  0.4512416516607697  1.0000
  H   H10       1.0  0.2246412004398258  0.9892261329907779  0.5487583483598485  1.0000
  H   H11       1.0  0.5317243047042415  0.6008184628062491  0.48782166276615313  1.0000
  H   H12       1.0  0.46827569567313776  0.10081846275258237  0.512178337254465  1.0000
  H   H13       1.0  0.3295513523069291  0.655365138480497  0.36203329661632605  1.0000
  H   H14       1.0  0.6704486480704501  0.15536513842683028  0.6379667034042921  1.0000
  H   H15       1.0  0.37234048405360565  0.5939470258444315  0.19730778435022658  1.0000
  H   H16       1.0  0.6276595163237737  0.0939470257907648  0.8026922156703915  1.0000
  H   H17       1.0  0.5350007950297282  0.49961017763655163  0.08011123015671623  1.0000
  H   H18       1.0  0.46499920424750996  0.9996101776902184  0.9198887698663396  1.0000
  H   H19       1.0  0.7792801645310515  0.3907196228250426  0.03710045312023156  1.0000
  H   H20       1.0  0.22071983474618662  0.8907196228787093  0.9628995469028243  1.0000
  C   C1        1.0  0.7616646288882589  0.9716189079579798  0.3343675704553062  1.0000
  C   C2        1.0  0.23833537148912035  0.471618907904313  0.6656324295653119  1.0000
  C   C3        1.0  0.8829940185219927  0.9113325213176237  0.2898219927291372  1.0000
  C   C4        1.0  0.11700598075524543  0.4113325212639569  0.7101780072939186  1.0000
  C   C5        1.0  0.8762927412114052  0.8933524346283624  0.1926645815542289  1.0000
  C   C6        1.0  0.12370725916597403  0.3933524345746957  0.8073354184663892  1.0000
  C   C7        1.0  0.7467520190200042  0.930435766680554  0.13608997078446003  1.0000
  C   C8        1.0  0.25324798025723394  0.4304357666268873  0.8639100292385958  1.0000
  C   C9        1.0  0.620369767953213  0.9825901926274295  0.18032034631429092  1.0000
  C   C10       1.0  0.3796302324241665  0.48259019399903685  0.8196796537063272  1.0000
  C   C11       1.0  0.6282305400394077  0.006386768260807187  0.27820168491824615  1.0000
  C   C12       1.0  0.37176945923783045  0.5063867683144739  0.7217983151048096  1.0000
  C   C13       1.0  0.03349477480965616  0.8582758997765255  0.32841599315328834  1.0000
  C   C14       1.0  0.9665052255677232  0.35827589972285884  0.6715840068673298  1.0000
  C   C15       1.0  0.02371725183750787  0.8339204099613681  0.16830125257746048  1.0000
  C   C16       1.0  0.9762827474397303  0.33392040990770133  0.8316987474455954  1.0000
  C   C17       1.0  0.018505937803583093  0.3177336528553373  0.1539886638561351  1.0000
  C   C18       1.0  0.981494061473655  0.817733652909004  0.8460113361669208  1.0000
  C   C19       1.0  0.13459975874634114  0.2835579795412549  0.2210531016750002  1.0000
  C   C20       1.0  0.8654002416310382  0.7835579795949216  0.7789468983456179  1.0000
  C   C21       1.0  0.1147820022763684  0.3110963100223686  0.3160144729370265  1.0000
  C   C22       1.0  0.8852179981010109  0.8110963100760353  0.6839855270835917  1.0000
  C   C23       1.0  0.9804338476002449  0.3734143492164416  0.3429499658259236  1.0000
  C   C24       1.0  0.019566152777134204  0.8734143492701084  0.6570500341946947  1.0000
  C   C25       1.0  0.8600211798072185  0.4110709093699056  0.27581201567932  1.0000
  C   C26       1.0  0.13997882057016084  0.9110709094235724  0.7241879843412982  1.0000
  C   C27       1.0  0.7172844312095753  0.47538736942900955  0.3012022188964869  1.0000
  C   C28       1.0  0.28271556916780405  0.9753873694826762  0.6987977811241313  1.0000
  C   C29       1.0  0.6887501591452616  0.5104437266767665  0.39456875042417316  1.0000
  C   C30       1.0  0.3112498401319765  0.010443726623099739  0.6054312495988826  1.0000
  C   C31       1.0  0.5512225451178429  0.5729586945547503  0.4156606273933232  1.0000
  C   C32       1.0  0.44877745525953644  0.07295869450108354  0.5843393726272951  1.0000
  C   C33       1.0  0.4363150496608882  0.602771257799852  0.34471167494168725  1.0000
  C   C34       1.0  0.5636849507164912  0.10277125774618523  0.655288325078931  1.0000
  C   C35       1.0  0.46057859180120914  0.5692645154606137  0.2528217063160281  1.0000
  C   C36       1.0  0.539421407476029  0.06926451540694706  0.7471782937070277  1.0000
  C   C37       1.0  0.6000452435443291  0.5060198557517052  0.229088449664938  1.0000
  C   C38       1.0  0.3999547557329091  0.006019855698038432  0.7709115503581179  1.0000
  C   C39       1.0  0.6257280182098713  0.4744366717604181  0.1338012647768483  1.0000
  C   C40       1.0  0.3742719821675079  0.9744366718140848  0.8661987352437699  1.0000
  C   C41       1.0  0.7601227417408738  0.41516603229421334  0.10980511567918813  1.0000
  C   C42       1.0  0.23987725863650547  0.91516603234788  0.8901948843414301  1.0000
  C   C43       1.0  0.8802150501105566  0.38192836743426145  0.17953113467411314  1.0000
  C   C44       1.0  0.1197849491666816  0.8819283674879281  0.8204688653489427  1.0000
  O   O1        1.0  0.09016202691549315  0.8480544118531063  0.40773458790474115  1.0000
  O   O2        1.0  0.9098379734618862  0.34805441179943963  0.592265412115877  1.0000
  O   O3        1.0  0.07180128048406442  0.805509932937866  0.09407879845342208  1.0000
  O   O4        1.0  0.9281987198933149  0.3055099328841993  0.9059212015671961  1.0000
  O   O5        1.0  0.11379534387992163  0.8118515456676666  0.25261439822948606  1.0000
  O   O6        1.0  0.8862046564974576  0.3118515456139999  0.7473856017911321  1.0000
  Cl  Cl1       1.0  0.7741601382633472  0.009791277516842127  0.4515021831295856  1.0000
  Cl  Cl2       1.0  0.22583986101389092  0.5097912775705089  0.5484978168934702  1.0000
  Cl  Cl3       1.0  0.7405575622993709  0.9175820114621512  0.01753649827052121  1.0000
  Cl  Cl4       1.0  0.2594424369778673  0.41758201140848455  0.9824635017525346  1.0000
  Cl  Cl5       1.0  0.4559901187313634  0.015102431394218201  0.11491118687145481  1.0000
  Cl  Cl6       1.0  0.5440098816460159  0.5151024314478849  0.8850888131491634  1.0000
  Cl  Cl7       1.0  0.47559618110523916  0.07822400729065684  0.3284676434861806  1.0000
  Cl  Cl8       1.0  0.5244038192721401  0.5782240073443236  0.6715323565344374  1.0000
