data_image0
_chemical_formula_structural       H68C76N4O16F24P4
_chemical_formula_sum              "H68 C76 N4 O16 F24 P4"
_cell_length_a       16.93555492103296
_cell_length_b       8.669201812987989
_cell_length_c       14.402745215709832
_cell_angle_alpha    90.0
_cell_angle_beta     115.5707036881327
_cell_angle_gamma    90.0

_space_group_name_H-M_alt    "P 1"
_space_group_IT_number       1

loop_
  _space_group_symop_operation_xyz
  'x, y, z'

loop_
  _atom_site_type_symbol
  _atom_site_label
  _atom_site_symmetry_multiplicity
  _atom_site_fract_x
  _atom_site_fract_y
  _atom_site_fract_z
  _atom_site_occupancy
  H   H1        1.0  0.32355849544781834  0.02115880838362646  0.738024818291176  1.0000
  H   H2        1.0  0.6764415041160539  0.5211588087880473  0.761975181894533  1.0000
  H   H3        1.0  0.6764415040481414  0.9788411912717063  0.2619751813287064  1.0000
  H   H4        1.0  0.3235584956564088  0.4788411908672856  0.2380248184950112  1.0000
  H   H5        1.0  0.5097776592709563  0.2615279375089963  0.07434101711547592  1.0000
  H   H6        1.0  0.4902223404335938  0.7615279367599084  0.42565898270824165  1.0000
  H   H7        1.0  0.49022234022500344  0.7384720632998453  0.9256589825044065  1.0000
  H   H8        1.0  0.5097776596556888  0.23847206289542452  0.5743410169194864  1.0000
  H   H9        1.0  0.6457254556729001  0.11739540755358466  0.1053579940711063  1.0000
  H   H10       1.0  0.3542745440316501  0.6173954079580054  0.39464200575261127  1.0000
  H   H11       1.0  0.3542745438230596  0.8826045921017481  0.8946420055487762  1.0000
  H   H12       1.0  0.6457254554643096  0.38260459169732736  0.6053579938672712  1.0000
  H   H13       1.0  0.3642575135327269  0.14797139317695304  0.967303108482598  1.0000
  H   H14       1.0  0.6357424863479652  0.6479713924278651  0.5326968909412947  1.0000
  H   H15       1.0  0.6357424865565557  0.8520286076318885  0.032696891145129844  1.0000
  H   H16       1.0  0.3642575137413175  0.3520286072274677  0.4673031086864332  1.0000
  H   H17       1.0  0.2742046649851892  0.794685073506841  0.18167670260057622  1.0000
  H   H18       1.0  0.725795334719361  0.29468507310242026  0.31832329722314134  1.0000
  H   H19       1.0  0.7257953347872736  0.20531492614849176  0.8183232977889682  1.0000
  H   H20       1.0  0.2742046647765987  0.7053149265529126  0.6816767023967412  1.0000
  H   H21       1.0  0.17993334246282613  0.10732640329194389  0.7333668705449731  1.0000
  H   H22       1.0  0.820066657694369  0.6073264036963647  0.7666331296485814  1.0000
  H   H23       1.0  0.8200666579029595  0.8926735963633889  0.26663312985241666  1.0000
  H   H24       1.0  0.17993334180159065  0.3926735971124769  0.2333668699713009  1.0000
  H   H25       1.0  0.1695974821283799  0.9235829217869302  0.6750063610571637  1.0000
  H   H26       1.0  0.8304025177523122  0.4235829225360182  0.8249936383667292  1.0000
  H   H27       1.0  0.8304025173675798  0.07641707786840259  0.3249936385627188  1.0000
  H   H28       1.0  0.1695974823369704  0.5764170782728234  0.17500636126099878  1.0000
  H   H29       1.0  0.045844819608829884  0.08827172056988312  0.559307466096757  1.0000
  H   H30       1.0  0.9541551799550424  0.5882717209743039  0.9406925340889521  1.0000
  H   H31       1.0  0.9541551798871298  0.9117282790854497  0.4406925335231255  1.0000
  H   H32       1.0  0.04584481981742038  0.41172827983453764  0.059307466300592075  1.0000
  H   H33       1.0  0.38613049876303945  0.8013957489825051  0.11302197848635083  1.0000
  H   H34       1.0  0.6138695015348336  0.30139574857808427  0.38697802134521225  1.0000
  H   H35       1.0  0.6138695016027462  0.19860425182633654  0.886978021911039  1.0000
  H   H36       1.0  0.386130498554449  0.6986042510772487  0.6130219782825157  1.0000
  H   H37       1.0  0.52551594089721  0.9420785818787023  0.2072666592273593  1.0000
  H   H38       1.0  0.4744840588073403  0.44207858147428153  0.2927333405963583  1.0000
  H   H39       1.0  0.4744840594685758  0.05792141777663051  0.7927333411700306  1.0000
  H   H40       1.0  0.5255159406886195  0.5579214181810513  0.7072666590235243  1.0000
  H   H41       1.0  0.07423120503271784  0.32241730787861544  0.47860462865514014  1.0000
  H   H42       1.0  0.9257687952651552  0.8224173071295275  0.02139537117642287  1.0000
  H   H43       1.0  0.9257687950565647  0.6775826917767174  0.5213953709725878  1.0000
  H   H44       1.0  0.07423120482412737  0.1775826925258053  0.978604628451305  1.0000
  H   H45       1.0  0.12117080471547327  0.3508719517225771  0.6140358730001741  1.0000
  H   H46       1.0  0.8788291954417218  0.8508719509734891  0.8859641271933804  1.0000
  H   H47       1.0  0.8788291956503124  0.6491280490862644  0.38596412739721553  1.0000
  H   H48       1.0  0.12117080464756068  0.14912804868184365  0.1140358724343475  1.0000
  H   H49       1.0  0.22811515399699953  0.4215502232887127  0.5413239535687028  1.0000
  H   H50       1.0  0.7718848461601957  0.9215502236931336  0.9586760466248518  1.0000
  H   H51       1.0  0.7718848463687862  0.5784497763666201  0.458676046828687  1.0000
  H   H52       1.0  0.22811515420559003  0.07844977711570807  0.04132395377253789  1.0000
  H   H53       1.0  0.5536306645715345  0.07899066082116928  0.3709468955720265  1.0000
  H   H54       1.0  0.4463693354095188  0.5789906612255901  0.1290531050213529  1.0000
  H   H55       1.0  0.4463693352009283  0.9210093388341635  0.6290531048175177  1.0000
  H   H56       1.0  0.5536306649562669  0.4210093395832515  0.8709468953760369  1.0000
  H   H57       1.0  0.4384023511690833  0.08188211040796352  0.4350634184004032  1.0000
  H   H58       1.0  0.5615976494052929  0.5818821108123843  0.06493658220082175  1.0000
  H   H59       1.0  0.5615976491967024  0.9181178892473693  0.5649365819969866  1.0000
  H   H60       1.0  0.4384023509604928  0.41811788999645727  0.935063418196568  1.0000
  H   H61       1.0  0.2907370178950138  0.30464214779765664  0.7188545237279224  1.0000
  H   H62       1.0  0.7092629822621814  0.8046421482020774  0.7811454764656324  1.0000
  H   H63       1.0  0.7092629824707719  0.6953578518576762  0.2811454766694675  1.0000
  H   H64       1.0  0.2907370172337783  0.19535785260676414  0.2188545231542501  1.0000
  H   H65       1.0  0.3520273882661927  0.25081752240931626  0.6509588145759041  1.0000
  H   H66       1.0  0.6479726116144995  0.750817522813737  0.8490411848479887  1.0000
  H   H67       1.0  0.6479726112297671  0.7491824772460166  0.3490411850439783  1.0000
  H   H68       1.0  0.3520273884747831  0.2491824768415958  0.15095881477973921  1.0000
  C   C1        1.0  0.27118802222731664  0.06874239899539245  0.6680268423125871  1.0000
  C   C2        1.0  0.7288119779298785  0.5687423993998132  0.8319731578809675  1.0000
  C   C3        1.0  0.7288119778619658  0.9312576006599405  0.3319731573151408  1.0000
  C   C4        1.0  0.2711880218425843  0.4312576002555196  0.16802684250857675  1.0000
  C   C5        1.0  0.3501691833356981  0.936994826655243  0.3128440101063304  1.0000
  C   C6        1.0  0.6498308163688522  0.43699482625082225  0.18715598971738723  1.0000
  C   C7        1.0  0.6498308161602617  0.06300517300008975  0.6871559895135522  1.0000
  C   C8        1.0  0.35016918399693364  0.5630051734045106  0.8128440106800026  1.0000
  C   C9        1.0  0.15717446225591747  0.877305984341668  0.36025282732325264  1.0000
  C   C10       1.0  0.8428255383184587  0.37730598509075586  0.13974717327797223  1.0000
  C   C11       1.0  0.8428255381098683  0.1226940153136649  0.6397471730741372  1.0000
  C   C12       1.0  0.15717446204732702  0.6226940157180857  0.8602528271194175  1.0000
  C   C13       1.0  0.181588214396069  0.046434622089072564  0.6672268728099788  1.0000
  C   C14       1.0  0.8184117857611262  0.5464346224934934  0.8327731273835757  1.0000
  C   C15       1.0  0.8184117859697166  0.9535653775662603  0.33277312758741084  1.0000
  C   C16       1.0  0.1815882137348335  0.45356537716183953  0.1672268722363067  1.0000
  C   C17       1.0  0.3354345715063295  0.8569551119308212  0.22217699680211475  1.0000
  C   C18       1.0  0.6645654287915435  0.35695511267990915  0.2778230030294483  1.0000
  C   C19       1.0  0.6645654285829532  0.14304488772451168  0.7778230028256133  1.0000
  C   C20       1.0  0.33543457157424217  0.6430448869754237  0.7221769973679415  1.0000
  C   C21       1.0  0.5054365582137271  0.1474850946582493  0.040900969141098406  1.0000
  C   C22       1.0  0.49456344149082304  0.64748509506267  0.45909903068261915  1.0000
  C   C23       1.0  0.4945634418755554  0.8525149049970836  0.9590990304866295  1.0000
  C   C24       1.0  0.5054365582816398  0.3525149057461715  0.5409009697069251  1.0000
  C   C25       1.0  0.5819169457688191  0.06542134815114214  0.059571581247459135  1.0000
  C   C26       1.0  0.4180830545290539  0.5654213474020542  0.440428418584104  1.0000
  C   C27       1.0  0.4180830543204635  0.9345786526576995  0.9404284183802689  1.0000
  C   C28       1.0  0.5819169458367318  0.43457865225327863  0.5595715818132858  1.0000
  C   C29       1.0  0.423443780412806  0.08269128755614  0.9811583885998205  1.0000
  C   C30       1.0  0.5765562191510664  0.5826912868070521  0.5188416115858886  1.0000
  C   C31       1.0  0.5765562193596568  0.9173087132527016  0.018841611789723774  1.0000
  C   C32       1.0  0.42344378062139654  0.41730871284828075  0.48115838880365563  1.0000
  C   C33       1.0  0.11192267647075274  0.11140234485637508  0.5668313365147656  1.0000
  C   C34       1.0  0.8880773236864425  0.6114023452607958  0.933168663678789  1.0000
  C   C35       1.0  0.888077323895033  0.8885976547989577  0.43316866388262415  1.0000
  C   C36       1.0  0.11192267667934325  0.388597654394537  0.06683133671860075  1.0000
  C   C37       1.0  0.39838340581273596  0.8605197192230062  0.18451453627535244  1.0000
  C   C38       1.0  0.6016165944851372  0.3605197188185853  0.3154854635562106  1.0000
  C   C39       1.0  0.6016165942765466  0.13948028043232671  0.8154854633523755  1.0000
  C   C40       1.0  0.39838340588064863  0.6394802808367476  0.6845145368411791  1.0000
  C   C41       1.0  0.1252501522329902  0.28183167524599245  0.5522136704158952  1.0000
  C   C42       1.0  0.8747498479242051  0.7818316756504132  0.9477863297776595  1.0000
  C   C43       1.0  0.8747498478562923  0.7181683244093403  0.44778632921183276  1.0000
  C   C44       1.0  0.1252501524415807  0.2181683240049196  0.05221367061973027  1.0000
  C   C45       1.0  0.4768202184504399  0.9405053343878471  0.23772164685163868  1.0000
  C   C46       1.0  0.5231797812541104  0.44050533398342645  0.26227835297207885  1.0000
  C   C47       1.0  0.5231797816388427  0.059494666420994366  0.7622783527760892  1.0000
  C   C48       1.0  0.4768202182418494  0.5594946656719064  0.7377216466478035  1.0000
  C   C49       1.0  0.21528566272866886  0.3015033363376174  0.5540190385419569  1.0000
  C   C50       1.0  0.7847143371520232  0.8015033367420382  0.945980960881936  1.0000
  C   C51       1.0  0.7847143373606138  0.6984966633177155  0.44598096108577107  1.0000
  C   C52       1.0  0.21528566234393642  0.1984966640668034  0.054019038737946425  1.0000
  C   C53       1.0  0.49190406574528134  0.019425314306064975  0.32839466610269774  1.0000
  C   C54       1.0  0.5080959342357719  0.5194253147104858  0.1716053344906816  1.0000
  C   C55       1.0  0.5080959340271815  0.980574685349268  0.6716053342868464  1.0000
  C   C56       1.0  0.49190406613001375  0.4805746849448471  0.8283946659067081  1.0000
  C   C57       1.0  0.28827437682792484  0.237787379330773  0.6529488381410349  1.0000
  C   C58       1.0  0.7117256233292705  0.7377873797351938  0.84705116205252  1.0000
  C   C59       1.0  0.7117256232613579  0.7622126203245598  0.34705116148669324  1.0000
  C   C60       1.0  0.28827437703651526  0.26221261992013906  0.1529488383448699  1.0000
  C   C61       1.0  0.42819365439415624  0.019533662227853202  0.3653370472186578  1.0000
  C   C62       1.0  0.5718063459037168  0.519533662632274  0.1346629526129053  1.0000
  C   C63       1.0  0.5718063456951263  0.9804663374274796  0.6346629524090702  1.0000
  C   C64       1.0  0.4281936544620689  0.4804663370230589  0.8653370477844845  1.0000
  C   C65       1.0  0.2829675764404939  0.9355760789705863  0.35150655101414496  1.0000
  C   C66       1.0  0.7170324232640563  0.4355760785661654  0.1484934488095726  1.0000
  C   C67       1.0  0.7170324236487887  0.06442392183825538  0.648493448613583  1.0000
  C   C68       1.0  0.2829675765084066  0.5644239210891674  0.8515065515799717  1.0000
  C   C69       1.0  0.14991076018906163  0.7197311949356329  0.407217614760959  1.0000
  C   C70       1.0  0.8500892395154885  0.21973119568472077  0.09278238506275846  1.0000
  C   C71       1.0  0.8500892393068982  0.2802688047197  0.5927823848589234  1.0000
  C   C72       1.0  0.1499107608502972  0.7802688051241208  0.9072176153346313  1.0000
  C   C73       1.0  0.067383788594833  0.9332042493092678  0.2770944303700282  1.0000
  C   C74       1.0  0.9326162117030401  0.43320424890484704  0.22290556946153486  1.0000
  C   C75       1.0  0.9326162114944496  0.06679575034606502  0.7229055692576998  1.0000
  C   C76       1.0  0.06738378838624251  0.5667957507504858  0.7770944301661931  1.0000
  N   N1        1.0  0.21232076855165571  0.8533197138076879  0.30895878870190224  1.0000
  N   N2        1.0  0.7876792314293976  0.3533197134032671  0.1910412118914771  1.0000
  N   N3        1.0  0.78767923181413  0.14668028584764495  0.6910412116954875  1.0000
  N   N4        1.0  0.21232076834306518  0.6466802862520658  0.8089587884980671  1.0000
  O   O1        1.0  0.2775619858123258  0.9768002848097652  0.5842579434496863  1.0000
  O   O2        1.0  0.7224380143448695  0.47680028555885307  0.9157420567438683  1.0000
  O   O3        1.0  0.7224380142769568  0.023199714845567713  0.41574205617804166  1.0000
  O   O4        1.0  0.27756198542759336  0.5231997152499884  0.08425794364567593  1.0000
  O   O5        1.0  0.11860194794595037  0.02706089038653287  0.48269240585977535  1.0000
  O   O6        1.0  0.8813980520351029  0.527060889637445  0.017307594733604027  1.0000
  O   O7        1.0  0.8813980524198354  0.9729391104223087  0.5173075945376144  1.0000
  O   O8        1.0  0.11860194773735983  0.4729391100178879  0.9826924056559402  1.0000
  O   O9        1.0  0.21902872001988927  0.21905177673392698  0.465687675084513  1.0000
  O   O10       1.0  0.780971279684661  0.7190517771383478  0.034312324739204585  1.0000
  O   O11       1.0  0.7809712794760704  0.7809482229214059  0.5343123245353694  1.0000
  O   O12       1.0  0.21902872008780194  0.2809482225169851  0.9656876756503396  1.0000
  O   O13       1.0  0.2976625238824639  0.02610112959430692  0.4320922198593025  1.0000
  O   O14       1.0  0.7023374766919124  0.5261011299987277  0.0679077807419224  1.0000
  O   O15       1.0  0.7023374764833219  0.9738988700610259  0.5679077805380873  1.0000
  O   O16       1.0  0.2976625236738733  0.47389886965660516  0.9320922196554673  1.0000
  F   F1        1.0  0.11962585847099144  0.6087748080905486  0.33344273901119287  1.0000
  F   F2        1.0  0.8803741412335586  0.10877480768612792  0.16655726081252462  1.0000
  F   F3        1.0  0.8803741413014713  0.39122519156478414  0.6665572613783514  1.0000
  F   F4        1.0  0.11962585826240095  0.8912251919692049  0.8334427388073578  1.0000
  F   F5        1.0  0.2319394767162485  0.6742178779646433  0.47617674253071396  1.0000
  F   F6        1.0  0.7680605229883016  0.17421787756022247  0.023823257293003625  1.0000
  F   F7        1.0  0.7680605230562143  0.32578212284419833  0.5238232578588303  1.0000
  F   F8        1.0  0.23193947650765803  0.8257821220951104  0.9761767423268789  1.0000
  F   F9        1.0  0.09828250790031215  0.7172353077170907  0.45729514506669183  1.0000
  F   F10       1.0  0.9017174923975609  0.21723530731266982  0.04270485476487121  1.0000
  F   F11       1.0  0.9017174921889705  0.28276469309175095  0.5427048545610361  1.0000
  F   F12       1.0  0.09828250796822474  0.7827646923426631  0.9572951456325185  1.0000
  F   F13       1.0  5.044230717002019e-05  0.9171370388549767  0.3028634207344229  1.0000
  F   F14       1.0  0.9999495576738833  0.4171370396040647  0.19713657985895647  1.0000
  F   F15       1.0  0.9999495580586156  0.08286296080035613  0.6971365796629669  1.0000
  F   F16       1.0  5.0442098579532737e-05  0.5828629612047769  0.8028634205305878  1.0000
  F   F17       1.0  0.044605113534081656  0.8554366814819789  0.18694182050379565  1.0000
  F   F18       1.0  0.9553948861704685  0.35543668107755805  0.31305817931992186  1.0000
  F   F19       1.0  0.9553948865552009  0.144563318173354  0.8130581791239323  1.0000
  F   F20       1.0  0.044605113325491164  0.6445633185777748  0.6869418202999605  1.0000
  F   F21       1.0  0.07389328697708944  0.08579303678058584  0.2563530856864831  1.0000
  F   F22       1.0  0.9261067130039639  0.5857930371850066  0.2436469149068963  1.0000
  F   F23       1.0  0.9261067133886963  0.914206962874747  0.7436469147109067  1.0000
  F   F24       1.0  0.07389328676849896  0.4142069636238349  0.7563530854826479  1.0000
  P   P1        1.0  0.21086187381699237  0.032948410495193044  0.47029996838528376  1.0000
  P   P2        1.0  0.7891381264808807  0.5329484097461051  0.029700031446279255  1.0000
  P   P3        1.0  0.7891381262722903  0.9670515903136485  0.5297000312424441  1.0000
  P   P4        1.0  0.210861873884905  0.4670515899092278  0.9702999689511105  1.0000
