data_image0
_chemical_formula_structural       H42C40N4O8S2
_chemical_formula_sum              "H42 C40 N4 O8 S2"
_cell_length_a       9.08235328850633
_cell_length_b       9.261551731852263
_cell_length_c       11.569509260342116
_cell_angle_alpha    90.14241161219341
_cell_angle_beta     85.026410153327
_cell_angle_gamma    84.24629162612979

_space_group_name_H-M_alt    "P 1"
_space_group_IT_number       1

loop_
  _space_group_symop_operation_xyz
  'x, y, z'

loop_
  _atom_site_type_symbol
  _atom_site_label
  _atom_site_symmetry_multiplicity
  _atom_site_fract_x
  _atom_site_fract_y
  _atom_site_fract_z
  _atom_site_occupancy
  H   H1        1.0  0.2438901076281657  0.03645449809640607  0.9064722833550409  1.0000
  H   H2        1.0  0.7561098919945841  0.9635455020396044  0.09352771636796545  1.0000
  H   H3        1.0  0.6000648373719187  0.3903297223412128  0.9875484184407501  1.0000
  H   H4        1.0  0.3999351633558478  0.6096702777937129  0.012451582071617272  1.0000
  H   H5        1.0  0.4000364524144391  0.17990227066704392  0.7708894234764664  1.0000
  H   H6        1.0  0.5999635473166499  0.8200977283837066  0.2291105762390263  1.0000
  H   H7        1.0  0.9965339968329375  0.1489546620856743  0.9905454300458743  1.0000
  H   H8        1.0  0.003466003895377559  0.8510453380467152  0.009454569602112278  1.0000
  H   H9        1.0  0.3063506820163725  0.42664619078625526  0.7152394794849732  1.0000
  H   H10       1.0  0.6936493187113941  0.5733538093486704  0.2847605210273942  1.0000
  H   H11       1.0  0.9046694122647911  0.39689885793877616  0.9368317710892172  1.0000
  H   H12       1.0  0.0953305873574103  0.6031011421997704  0.06316822949817012  1.0000
  H   H13       1.0  0.6103162192631807  0.4381154139905507  0.44721224831537926  1.0000
  H   H14       1.0  0.38968378035956924  0.5618845861454596  0.5527877514076271  1.0000
  H   H15       1.0  0.10413867081385579  0.6068288055116683  0.7032125230481397  1.0000
  H   H16       1.0  0.8958613288088939  0.39317119462434214  0.29678747667486666  1.0000
  H   H17       1.0  0.08530878768557526  0.6613435852088312  0.8490962705151979  1.0000
  H   H18       1.0  0.9146912119371745  0.3386564149271791  0.1509037292078086  1.0000
  H   H19       1.0  0.8229285413923086  0.6033642615993087  0.8704644531033456  1.0000
  H   H20       1.0  0.17707145822989281  0.3966357385392379  0.12953554748404156  1.0000
  H   H21       1.0  0.8548041624510696  0.7328643368213104  0.7626580782971817  1.0000
  H   H22       1.0  0.1451958371716803  0.2671356633147001  0.23734192142582475  1.0000
  H   H23       1.0  0.8720064759474284  0.5423823117297881  0.6067080699518297  1.0000
  H   H24       1.0  0.1279935236753212  0.45761768840622224  0.3932919297711767  1.0000
  H   H25       1.0  0.8552429385617731  0.40737210835165205  0.7113561990150856  1.0000
  H   H26       1.0  0.14475706216599338  0.5926278917832736  0.2886438014972818  1.0000
  H   H27       1.0  0.5800770771286046  0.8974923791240658  0.9425824303919307  1.0000
  H   H28       1.0  0.4199229235997105  0.10250762100832372  0.05741756925605573  1.0000
  H   H29       1.0  0.5224804771999111  0.9032423358926366  0.5759701690826409  1.0000
  H   H30       1.0  0.4775195224228389  0.09675766424337365  0.42402983064036553  1.0000
  H   H31       1.0  0.7384098591922061  0.1018648458326014  0.9172865417229288  1.0000
  H   H32       1.0  0.26159014164444794  0.8981351532145283  0.08271345791754404  1.0000
  H   H33       1.0  0.6842383271885384  0.1076129176212914  0.550760522242519  1.0000
  H   H34       1.0  0.31576167243421144  0.8923870825147191  0.4492394774804874  1.0000
  H   H35       1.0  0.789012872749912  0.20525580140798655  0.7219488015591228  1.0000
  H   H36       1.0  0.2109871268728379  0.7947441987280238  0.2780511981638838  1.0000
  H   H37       1.0  0.008674149365132717  0.7367317795140393  0.5434822942050023  1.0000
  H   H38       1.0  0.9913258502576172  0.2632682206219711  0.4565177055180042  1.0000
  H   H39       1.0  0.1051155898783076  0.9051968291278853  0.6795445583060303  1.0000
  H   H40       1.0  0.8948844097444423  0.09480317100812498  0.3204554414169761  1.0000
  H   H41       1.0  0.09857753641435922  0.16791469812281518  0.6358594497775089  1.0000
  H   H42       1.0  0.9014224633167298  0.8320853009279353  0.36414054993798384  1.0000
  C   C1        1.0  0.20444128676954101  0.1470593602112118  0.8843285338888242  1.0000
  C   C2        1.0  0.7955587139582256  0.8529406399237137  0.11567146662354326  1.0000
  C   C3        1.0  0.2913761137976928  0.22685143141412048  0.807815734414613  1.0000
  C   C4        1.0  0.7086238858250571  0.7731485687218899  0.19218426530839353  1.0000
  C   C5        1.0  0.06547138490378247  0.20972173653381776  0.930342487216  1.0000
  C   C6        1.0  0.9345286147189675  0.7902782636021927  0.06965751250700646  1.0000
  C   C7        1.0  0.23850245639681214  0.3668342572733581  0.7768952852051324  1.0000
  C   C8        1.0  0.7614975443309545  0.6331657428615676  0.22310471530723494  1.0000
  C   C9        1.0  0.013668723271014059  0.3505119244739745  0.9000046935774271  1.0000
  C   C10       1.0  0.9863312763517359  0.6494880756620359  0.09999530614557947  1.0000
  C   C11       1.0  0.09916100618222133  0.43144195188917717  0.8223184427996159  1.0000
  C   C12       1.0  0.9008389934405286  0.5685580482468332  0.17768155692339066  1.0000
  C   C13       1.0  0.04716623548672758  0.5844650418824403  0.7881755190852959  1.0000
  C   C14       1.0  0.952833764135474  0.4155349582561062  0.2118244815020914  1.0000
  C   C15       1.0  0.8793142231750974  0.6177454788940062  0.7839975853952663  1.0000
  C   C16       1.0  0.1206857764476525  0.38225452124200415  0.21600241432774  1.0000
  C   C17       1.0  0.8205060323571799  0.5222148854753682  0.6941544173103971  1.0000
  C   C18       1.0  0.17949396737390896  0.4777851135753823  0.3058455824050957  1.0000
  C   C19       1.0  0.6554720288788091  0.5409378588724676  0.6877092780685821  1.0000
  C   C20       1.0  0.3445279718495059  0.4590621412599219  0.31229072157940446  1.0000
  C   C21       1.0  0.5533189104063325  0.5932255567707327  0.788241066321449  1.0000
  C   C22       1.0  0.4466810892158689  0.40677444336781376  0.21175893426593842  1.0000
  C   C23       1.0  0.5416344620774239  0.8925616467823495  0.76042239093426  1.0000
  C   C24       1.0  0.458365538650891  0.10743835335004003  0.2395776087137267  1.0000
  C   C25       1.0  0.6025697850926144  0.9446853509540688  0.8574765823879259  1.0000
  C   C26       1.0  0.3974302145295871  0.05531464918447766  0.14252341819946138  1.0000
  C   C27       1.0  0.5704589140704207  0.948277087987021  0.6494512655201948  1.0000
  C   C28       1.0  0.4295410855517808  0.051722912151525406  0.3505487350671926  1.0000
  C   C29       1.0  0.691976712111162  0.05792707469911119  0.8426631725914311  1.0000
  C   C30       1.0  0.30802328861715317  0.9420729254332781  0.15733682705655533  1.0000
  C   C31       1.0  0.6597757520291097  0.06206309370734634  0.6361523257583196  1.0000
  C   C32       1.0  0.34022424869920537  0.9379369064250431  0.36384767388966693  1.0000
  C   C33       1.0  0.7195095391102801  0.1164976002193016  0.7325786888787572  1.0000
  C   C34       1.0  0.2804904605124697  0.8835023999167088  0.2674213108442492  1.0000
  C   C35       1.0  0.0037205346692006478  0.8523581440045463  0.5248494317770948  1.0000
  C   C36       1.0  0.9962794649535492  0.14764185613146402  0.4751505679459117  1.0000
  C   C37       1.0  0.058422782522688115  0.9468334035937791  0.6012484623432842  1.0000
  C   C38       1.0  0.9415772170995135  0.053166596544767464  0.39875153824410303  1.0000
  C   C39       1.0  0.055123544453941846  0.09465321278539404  0.5762618596547637  1.0000
  C   C40       1.0  0.944876455168808  0.9053467873506162  0.4237381400682427  1.0000
  N   N1        1.0  0.5880595410208463  0.5111907491271  0.5977507125962731  1.0000
  N   N2        1.0  0.4119404586019036  0.48880925100891043  0.4022492871267333  1.0000
  N   N3        1.0  0.5420458629106311  0.5386882186304516  0.8902674247643482  1.0000
  N   N4        1.0  0.4579541367121189  0.4613117815055588  0.10973257495865837  1.0000
  O   O1        1.0  0.6817999928335448  0.4521921633124354  0.506090365909136  1.0000
  O   O2        1.0  0.31820000678920507  0.547807836823575  0.4939096338138704  1.0000
  O   O3        1.0  0.6315757790130607  0.41410319728666617  0.9052484164049956  1.0000
  O   O4        1.0  0.3684242206091408  0.5858968028518803  0.09475158418239173  1.0000
  O   O5        1.0  0.3377605002710693  0.7712460174418718  0.8909596668704117  1.0000
  O   O6        1.0  0.6622394993511321  0.22875398269667477  0.10904033371697545  1.0000
  O   O7        1.0  0.34884237113075467  0.7404814247532018  0.6745753505801286  1.0000
  O   O8        1.0  0.6511576284919951  0.2595185753828086  0.32542464914287783  1.0000
  S   S1        1.0  0.42424697298076336  0.7525263212907518  0.7790423809315575  1.0000
  S   S2        1.0  0.5757530266414381  0.24747367884779473  0.22095761965582977  1.0000
