data_image0
_chemical_formula_structural       H24C24N16O2Cl4
_chemical_formula_sum              "H24 C24 N16 O2 Cl4"
_cell_length_a       4.73595387709002
_cell_length_b       12.56278409081514
_cell_length_c       13.414174149829979
_cell_angle_alpha    111.06796027558548
_cell_angle_beta     98.86864109398321
_cell_angle_gamma    97.05741902786225

_space_group_name_H-M_alt    "P 1"
_space_group_IT_number       1

loop_
  _space_group_symop_operation_xyz
  'x, y, z'

loop_
  _atom_site_type_symbol
  _atom_site_label
  _atom_site_symmetry_multiplicity
  _atom_site_fract_x
  _atom_site_fract_y
  _atom_site_fract_z
  _atom_site_occupancy
  H   H1        1.0  0.9024352576399658  0.5900427504580061  0.03142681312854184  1.0000
  H   H2        1.0  0.09756474337932575  0.40995724944606066  0.9685731866188216  1.0000
  H   H3        1.0  0.6891122246020157  0.6579004397080686  0.12287659002611692  1.0000
  H   H4        1.0  0.3108877761616958  0.34209955939391956  0.8771234097212395  1.0000
  H   H5        1.0  0.5907828802881424  0.1762122584430772  0.2460013044352363  1.0000
  H   H6        1.0  0.4092171207311492  0.8237877414609897  0.7539986953121273  1.0000
  H   H7        1.0  0.52079777651511  0.5837122703002177  0.24760550398962666  1.0000
  H   H8        1.0  0.47920222239480303  0.416287729603651  0.7523944957626532  1.0000
  H   H9        1.0  0.8443445641002763  0.061431604803298505  0.09940809775733046  1.0000
  H   H10       1.0  0.15565543480963664  0.9385683951005701  0.9005919019949494  1.0000
  H   H11       1.0  0.4432843843583923  0.1698807839909454  0.795442492010911  1.0000
  H   H12       1.0  0.5567156145515206  0.8301192159129233  0.20455750774136877  1.0000
  H   H13       1.0  0.7606892277271634  0.27195624985983247  0.824274415182168  1.0000
  H   H14       1.0  0.23931077329212813  0.7280437500442345  0.17572558456519555  1.0000
  H   H15       1.0  0.948502076194398  0.969522117260822  0.3927892608958168  1.0000
  H   H16       1.0  0.05149792482489373  0.03047788264324495  0.6072107388515467  1.0000
  H   H17       1.0  0.9383015316105202  0.3343778130660361  0.6955912172701271  1.0000
  H   H18       1.0  0.06169846940877125  0.6656221868380306  0.30440878247723646  1.0000
  H   H19       1.0  0.08637180778283199  0.9916415830551057  0.2223512701262568  1.0000
  H   H20       1.0  0.9136281932364597  0.008358416848961117  0.7776487296211068  1.0000
  H   H21       1.0  0.127409434467417  0.16647413031294786  0.9644659869295736  1.0000
  H   H22       1.0  0.8725905644424959  0.8335258695909207  0.035534012822706136  1.0000
  H   H23       1.0  0.44728303158438  0.14688987100328502  0.9556853876769386  1.0000
  H   H24       1.0  0.5527169678047089  0.8531101292361146  0.04431461289318468  1.0000
  C   C1        1.0  0.5625542447815183  0.413249558248596  0.23939109813754833  1.0000
  C   C2        1.0  0.4374457562377733  0.5867504416554709  0.7606089016098152  1.0000
  C   C3        1.0  0.6053607965004311  0.5062992494157749  0.20794774097054652  1.0000
  C   C4        1.0  0.3946392024094818  0.4937007504880936  0.7920522587817331  1.0000
  C   C5        1.0  0.7616917577959665  0.5016942545697946  0.12429971799371396  1.0000
  C   C6        1.0  0.23830824111394636  0.498305745334074  0.8757002817585658  1.0000
  C   C7        1.0  0.8219349829402599  0.31774009059234837  0.10146731126871697  1.0000
  C   C8        1.0  0.17806501807903183  0.6822599093117185  0.8985326884786468  1.0000
  C   C9        1.0  0.6748472789625669  0.3156010140417579  0.1852557748278777  1.0000
  C   C10       1.0  0.32515272042652194  0.6843989861976417  0.8147442257422456  1.0000
  C   C11       1.0  0.8159943050980653  0.14997225356713106  0.1133635255018233  1.0000
  C   C12       1.0  0.18400569592122634  0.8500277463369358  0.8866364742455403  1.0000
  C   C13       1.0  0.7529961326690435  0.25018013050696086  0.523982044203911  1.0000
  C   C14       1.0  0.24700386672004535  0.7498198697324387  0.47601795636621214  1.0000
  C   C15       1.0  0.7661335032323751  0.26853403742557036  0.6328482198350247  1.0000
  C   C16       1.0  0.23386649567753795  0.7314659624782983  0.36715177991725506  1.0000
  C   C17       1.0  0.5556368014546773  0.20174965111179807  0.6630715841460801  1.0000
  C   C18       1.0  0.44436319745523567  0.7982503487920706  0.33692841560619974  1.0000
  C   C19       1.0  0.33122920865266553  0.10415603303709339  0.48464354355903716  1.0000
  C   C20       1.0  0.6687707923666262  0.8958439668669737  0.5153564561883264  1.0000
  C   C21       1.0  0.5301645093590214  0.16387477378667306  0.4450291489194487  1.0000
  C   C22       1.0  0.4698354900300676  0.8361252264527266  0.5549708516506745  1.0000
  C   C23       1.0  0.21201242217462402  0.042269739569592776  0.3049314316935616  1.0000
  C   C24       1.0  0.7879875767352889  0.9577302603342758  0.6950685680587182  1.0000
  N   N1        1.0  0.8177460075340596  0.5980078118752019  0.09997310864518909  1.0000
  N   N2        1.0  0.18225399348523205  0.40199218802886494  0.9000268911021745  1.0000
  N   N3        1.0  0.868294793904995  0.4076905404609708  0.0705504538168356  1.0000
  N   N4        1.0  0.13170520500491797  0.5923094594428978  0.9294495459354443  1.0000
  N   N5        1.0  0.9056408252388863  0.21154531017646477  0.056446533761161884  1.0000
  N   N6        1.0  0.09435917625958137  0.7884546900631332  0.9435534668040452  1.0000
  N   N7        1.0  0.6759953503219674  0.20817734726675535  0.1907261978116919  1.0000
  N   N8        1.0  0.32400465069732426  0.7918226526373116  0.8092738019356718  1.0000
  N   N9        1.0  0.5698741726508796  0.2242243075394121  0.7716497225576354  1.0000
  N   N10       1.0  0.43012582625903334  0.7757756923644565  0.22835027719464432  1.0000
  N   N11       1.0  0.33525966325895196  0.1195013684339318  0.5890667615136138  1.0000
  N   N12       1.0  0.6647403377603397  0.8804986314701353  0.4109332382337498  1.0000
  N   N13       1.0  0.13120604849946646  0.027651673419932642  0.3934615685117977  1.0000
  N   N14       1.0  0.8687939504104466  0.9723483264839359  0.6065384312404821  1.0000
  N   N15       1.0  0.4508428552222088  0.12313048680685648  0.3321563515707245  1.0000
  N   N16       1.0  0.5491571441668801  0.876869513432543  0.6678436489993987  1.0000
  O   O1        1.0  0.25290440337262304  0.13251727721047407  0.9108121639883893  1.0000
  O   O2        1.0  0.747095596016466  0.8674827230289257  0.08918783658173385  1.0000
  Cl  Cl1       1.0  0.3766258716396421  0.41867216557092257  0.34071865867821094  1.0000
  Cl  Cl2       1.0  0.6233741272702708  0.581327834332946  0.6592813410740688  1.0000
  Cl  Cl3       1.0  0.003407500376777309  0.33209206597551816  0.48763976442781176  1.0000
  Cl  Cl4       1.0  0.9965924985331356  0.6679079339283504  0.5123602353244681  1.0000
