data_image0
_chemical_formula_structural       H50C56O8P2
_chemical_formula_sum              "H50 C56 O8 P2"
_cell_length_a       9.0437855108878
_cell_length_b       11.721017791392267
_cell_length_c       11.45337539471747
_cell_angle_alpha    90.0
_cell_angle_beta     113.34885203020998
_cell_angle_gamma    90.0

_space_group_name_H-M_alt    "P 1"
_space_group_IT_number       1

loop_
  _space_group_symop_operation_xyz
  'x, y, z'

loop_
  _atom_site_type_symbol
  _atom_site_label
  _atom_site_symmetry_multiplicity
  _atom_site_fract_x
  _atom_site_fract_y
  _atom_site_fract_z
  _atom_site_occupancy
  H   H1        1.0  0.20179050376302465  0.2517459390059933  0.8676578950056545  1.0000
  H   H2        1.0  0.7982094966505029  0.7517459385200173  0.1323421054573946  1.0000
  H   H3        1.0  0.6995775230409651  0.5511627347536544  0.999844745929571  1.0000
  H   H4        1.0  0.3004224773725626  0.05116273523963039  0.0001552545334783246  1.0000
  H   H5        1.0  0.3196953704164846  0.11459962555354562  0.7911405365946159  1.0000
  H   H6        1.0  0.680304629997043  0.6145996259207378  0.20885946386843324  1.0000
  H   H7        1.0  0.4938092074518908  0.07344581463157594  0.6748837547357217  1.0000
  H   H8        1.0  0.5061907924895667  0.5734458149987681  0.32511624477635603  1.0000
  H   H9        1.0  0.652255265929234  0.14003457372152273  0.5571938349672009  1.0000
  H   H10       1.0  0.34774473448429377  0.640034574088715  0.4428061654958484  1.0000
  H   H11       1.0  0.7725132896743634  0.29903224637829573  0.48068918627606244  1.0000
  H   H12       1.0  0.22748671026709402  0.799032246745488  0.5193108132360152  1.0000
  H   H13       1.0  0.7116051220818077  0.5004939532049955  0.5162394564748708  1.0000
  H   H14       1.0  0.28839487833171995  0.0004939536909714293  0.48376054398817836  1.0000
  H   H15       1.0  0.5337376595965052  0.5433053531133301  0.6279697947962438  1.0000
  H   H16       1.0  0.46626234081702245  0.0433053535993061  0.3720302056668053  1.0000
  H   H17       1.0  0.127107815811931  0.4386966150479  0.5456899238984256  1.0000
  H   H18       1.0  0.8728921846015967  0.9386966154150922  0.4543100765646236  1.0000
  H   H19       1.0  0.889028524844902  0.5513158340861474  0.4113441155496787  1.0000
  H   H20       1.0  0.11097147509655532  0.05131583457212334  0.588655883962399  1.0000
  H   H21       1.0  0.8458249599221422  0.7466554215476927  0.475485831696704  1.0000
  H   H22       1.0  0.1541750404913855  0.2466554220336688  0.5245141687663453  1.0000
  H   H23       1.0  0.046617634401678404  0.8312886537170441  0.6763936692596751  1.0000
  H   H24       1.0  0.9533823644317952  0.33128865334985197  0.32360633024789104  1.0000
  H   H25       1.0  0.29903864346335385  0.8153082001989584  0.8686213036612248  1.0000
  H   H26       1.0  0.7009613564781036  0.3153081998317662  0.13137869585085307  1.0000
  H   H27       1.0  0.540974848705486  0.7048787679571145  0.9973189219465377  1.0000
  H   H28       1.0  0.45902515060005794  0.20487876844309047  0.0026810785119999944  1.0000
  H   H29       1.0  0.127284006509854  0.12226298138139567  0.2829686813846867  1.0000
  H   H30       1.0  0.8727159939036737  0.622262981748588  0.7170313190783625  1.0000
  H   H31       1.0  0.23355571906360206  0.07968188570500084  0.18667704189858117  1.0000
  H   H32       1.0  0.7664442813499256  0.5796818860721931  0.8133229585644679  1.0000
  H   H33       1.0  0.05650744318143441  0.003933064587091982  0.17718012043750125  1.0000
  H   H34       1.0  0.9434925556520393  0.5039330641011159  0.8228198790700649  1.0000
  H   H35       1.0  0.8675624398613389  0.2995588687339527  0.7919110888377023  1.0000
  H   H36       1.0  0.13243756008011845  0.7995588691011449  0.2080889106743752  1.0000
  H   H37       1.0  0.975040044620168  0.3584367070140724  0.9482792635073293  1.0000
  H   H38       1.0  0.024959955321289258  0.8584367073812648  0.05172073600474841  1.0000
  H   H39       1.0  0.7791399034207719  0.297145590253924  0.9069039720044807  1.0000
  H   H40       1.0  0.22086009699275577  0.7971455897679481  0.0930960284585686  1.0000
  H   H41       1.0  0.7512006880781965  0.041826844624366526  0.022349959504573476  1.0000
  H   H42       1.0  0.24879931233533112  0.5418268449915588  0.9776500409584756  1.0000
  H   H43       1.0  0.5613220942567525  0.8862684678824362  0.9201958868358906  1.0000
  H   H44       1.0  0.4386779045767213  0.3862684683684122  0.07980411267167573  1.0000
  H   H45       1.0  0.5550153385512635  0.7965190861544655  0.7206886384856046  1.0000
  H   H46       1.0  0.44498466075428045  0.29651908578727326  0.279311361972933  1.0000
  H   H47       1.0  0.7420070871455778  0.8640118793640245  0.6248053014761724  1.0000
  H   H48       1.0  0.2579929132679498  0.3640118798500005  0.3751946989868767  1.0000
  H   H49       1.0  0.9363033251972326  0.020679062545063267  0.7283264940920215  1.0000
  H   H50       1.0  0.06369667521629499  0.5206790620590873  0.27167350637102755  1.0000
  C   C1        1.0  0.3305690017090212  0.2983740654816107  0.7725638064551252  1.0000
  C   C2        1.0  0.6694309982324362  0.7983740649956347  0.2274361930569526  1.0000
  C   C3        1.0  0.3675625474137025  0.1839385954676474  0.7529821884890728  1.0000
  C   C4        1.0  0.6324374529998252  0.6839385949816714  0.2470178119739764  1.0000
  C   C5        1.0  0.46310054089103087  0.161116004907598  0.6876792984386823  1.0000
  C   C6        1.0  0.5368994595224968  0.6611160052747902  0.31232070202436696  1.0000
  C   C7        1.0  0.5256040351557001  0.25058770682499876  0.6376223907587861  1.0000
  C   C8        1.0  0.47439596367777365  0.7505877071921909  0.3623776087487801  1.0000
  C   C9        1.0  0.6261214753394816  0.22853288832708285  0.571535293695889  1.0000
  C   C10       1.0  0.37387852396606247  0.728532888694275  0.42846470676264875  1.0000
  C   C11       1.0  0.6932330870140091  0.31677780173038717  0.5293632748405902  1.0000
  C   C12       1.0  0.30676691339951856  0.8167778012444111  0.47063672562245895  1.0000
  C   C13       1.0  0.6587714334649437  0.43095187123677253  0.5498667592901327  1.0000
  C   C14       1.0  0.34122856647651373  0.9309518716039646  0.45013324022194506  1.0000
  C   C15       1.0  0.5599293982281326  0.4552123087739314  0.6124719742528637  1.0000
  C   C16       1.0  0.44007060171332485  0.9552123082879554  0.3875280252592141  1.0000
  C   C17       1.0  0.49151655907167846  0.36651501400798686  0.6595629420663706  1.0000
  C   C18       1.0  0.5084834413418492  0.8665150143751791  0.34043705839667865  1.0000
  C   C19       1.0  0.39478641284320054  0.38933781444742077  0.7293097686215124  1.0000
  C   C20       1.0  0.6052135870982569  0.8893378139614448  0.2706902308905654  1.0000
  C   C21       1.0  0.36769724891593186  0.5078043396855045  0.7631181928109448  1.0000
  C   C22       1.0  0.6323027514975957  0.007804340171480474  0.23688180765210434  1.0000
  C   C23       1.0  0.22784019494327123  0.5709862103370321  0.6868541665610011  1.0000
  C   C24       1.0  0.7721598049981862  0.07098620996983986  0.3131458329510767  1.0000
  C   C25       1.0  0.11049938820388631  0.5252739701940746  0.5728822457258157  1.0000
  C   C26       1.0  0.8895006117375709  0.025273970680050634  0.42711775378626204  1.0000
  C   C27       1.0  0.9774054026465344  0.5880240558171965  0.4986321610491964  1.0000
  C   C28       1.0  0.02259459665900959  0.08802405630317255  0.5013678394093413  1.0000
  C   C29       1.0  0.9530204547856298  0.6994716138065131  0.5350678574714193  1.0000
  C   C30       1.0  0.046979545627897995  0.1994716134393208  0.4649321429916299  1.0000
  C   C31       1.0  0.06405631589145389  0.7460432554263113  0.6457980959016992  1.0000
  C   C32       1.0  0.9359436840500034  0.2460432559122873  0.3542019036103785  1.0000
  C   C33       1.0  0.20287037569711514  0.6842291849338938  0.7236508003137204  1.0000
  C   C34       1.0  0.7971296242443422  0.1842291854198699  0.27634919919835726  1.0000
  C   C35       1.0  0.31830165508623676  0.7305675268480976  0.8375203142818388  1.0000
  C   C36       1.0  0.6816983448552206  0.23056752733407362  0.1624796852302388  1.0000
  C   C37       1.0  0.45319265134622516  0.6693251106368401  0.9096807602567119  1.0000
  C   C38       1.0  0.5468073485952322  0.1693251111228161  0.09031923925536577  1.0000
  C   C39       1.0  0.47968924209012415  0.5581264149947971  0.8728447063257786  1.0000
  C   C40       1.0  0.5203107578513333  0.05812641462760484  0.1271552931862992  1.0000
  C   C41       1.0  0.11526668402371901  0.08754357243221249  0.1910934398875682  1.0000
  C   C42       1.0  0.8847333163898088  0.5875435727994047  0.808906560575481  1.0000
  C   C43       1.0  0.8923911495128478  0.2910005283419035  0.8934043781542782  1.0000
  C   C44       1.0  0.10760885090067976  0.7910005287090957  0.10659562230877104  1.0000
  C   C45       1.0  0.8564234263883845  0.04112323337261529  0.882038469541658  1.0000
  C   C46       1.0  0.14357657402514323  0.5411232337398075  0.1179615309213913  1.0000
  C   C47       1.0  0.7502299141866379  0.0032674969598737186  0.9356134866695167  1.0000
  C   C48       1.0  0.24977008575481957  0.5032674964738977  0.06438651284256106  1.0000
  C   C49       1.0  0.6426789960933028  0.9150964746318282  0.8775257902516911  1.0000
  C   C50       1.0  0.3573210038481546  0.4150964751178041  0.12247420926038667  1.0000
  C   C51       1.0  0.6400159014884444  0.8648952403642616  0.7662642683243914  1.0000
  C   C52       1.0  0.359984098453013  0.3648952408502375  0.23373573118768645  1.0000
  C   C53       1.0  0.7455731300457387  0.9027748185631835  0.7123299934175442  1.0000
  C   C54       1.0  0.25442686925980534  0.4027748181959913  0.28767000704099344  1.0000
  C   C55       1.0  0.8540646402895957  0.9903811961214612  0.7700376397872306  1.0000
  C   C56       1.0  0.14593535965186155  0.490381195754269  0.22996235972484716  1.0000
  O   O1        1.0  0.23575585108820926  0.3228043253017339  0.8358400273676629  1.0000
  O   O2        1.0  0.7642441493253184  0.8228043256689261  0.1641599730953863  1.0000
  O   O3        1.0  0.613081099231213  0.4976915967386379  0.9468089210297942  1.0000
  O   O4        1.0  0.3869189007102443  0.9976915971058301  0.05319107848228357  1.0000
  O   O5        1.0  0.1433740087833851  0.14353650936657772  0.9281830549644111  1.0000
  O   O6        1.0  0.8566259916301426  0.64353650973377  0.07181694549863808  1.0000
  O   O7        1.0  0.01612224752179357  0.16793587852460623  0.09671840765650137  1.0000
  O   O8        1.0  0.9838777524196637  0.6679358788917984  0.9032815918555763  1.0000
  P   P1        1.0  0.9902272654544958  0.15826520043014564  0.9513029255690836  1.0000
  P   P2        1.0  0.009772734959031939  0.6582652007973379  0.0486970748939656  1.0000
