data_image0
_chemical_formula_structural       H56C52N24O16S4I8
_chemical_formula_sum              "H56 C52 N24 O16 S4 I8"
_cell_length_a       9.141919916870854
_cell_length_b       9.733904194979665
_cell_length_c       21.05543887281267
_cell_angle_alpha    90.0
_cell_angle_beta     94.8569738846777
_cell_angle_gamma    90.0

_space_group_name_H-M_alt    "P 1"
_space_group_IT_number       1

loop_
  _space_group_symop_operation_xyz
  'x, y, z'

loop_
  _atom_site_type_symbol
  _atom_site_label
  _atom_site_symmetry_multiplicity
  _atom_site_fract_x
  _atom_site_fract_y
  _atom_site_fract_z
  _atom_site_occupancy
  H   H1        1.0  0.6153614961863579  0.9552103620246721  0.5263549996367947  1.0000
  H   H2        1.0  0.3846385030344436  0.9552103620246721  0.9736450007186555  1.0000
  H   H3        1.0  0.11536149620850575  0.45521036279413024  0.526354999517241  1.0000
  H   H4        1.0  0.8846385029117193  0.45521036279413024  0.9736450003615725  1.0000
  H   H5        1.0  0.3846385039746772  0.04478963746374851  0.47364500051877945  1.0000
  H   H6        1.0  0.6153614960334043  0.04478963746374851  0.026354999440242947  1.0000
  H   H7        1.0  0.8846385039525294  0.5447896377216274  0.47364500063833315  1.0000
  H   H8        1.0  0.11536149605555208  0.5447896377216274  0.02635499932068929  1.0000
  H   H9        1.0  0.32176032366617563  0.6414497970115931  0.5254571635114038  1.0000
  H   H10       1.0  0.6782396765472365  0.6414497970115931  0.9745428363640852  1.0000
  H   H11       1.0  0.8217603236440278  0.14144979675371422  0.5254571636309574  1.0000
  H   H12       1.0  0.17823967666996096  0.14144979675371422  0.9745428367211683  1.0000
  H   H13       1.0  0.6782396764948596  0.35855020247682756  0.47454283664417024  1.0000
  H   H14       1.0  0.321760323513222  0.35855020247682756  0.02545716331485212  1.0000
  H   H15       1.0  0.17823967651700728  0.8585502027347064  0.47454283652461654  1.0000
  H   H16       1.0  0.8217603234910742  0.8585502027347064  0.025457163434405777  1.0000
  H   H17       1.0  0.4914796039105883  0.4916755388314153  0.582301728569046  1.0000
  H   H18       1.0  0.5085203964034004  0.4916755388314153  0.9176982717830795  1.0000
  H   H19       1.0  0.9914796037878637  0.9916755390892942  0.582301728211963  1.0000
  H   H20       1.0  0.00852039642554827  0.9916755390892942  0.9176982716635259  1.0000
  H   H21       1.0  0.5085203962504469  0.5083244606570054  0.417698271586528  1.0000
  H   H22       1.0  0.49147960375763466  0.5083244606570054  0.08230172837249439  1.0000
  H   H23       1.0  0.008520396272594625  0.008324460399126548  0.41769827146697436  1.0000
  H   H24       1.0  0.9914796037354869  0.008324460399126548  0.08230172849204805  1.0000
  H   H25       1.0  0.6834103787600159  0.14417258500692814  0.7169210473602011  1.0000
  H   H26       1.0  0.31658962145339625  0.14417258500692814  0.7830789525152879  1.0000
  H   H27       1.0  0.18341037768897647  0.644172585264807  0.716921047243972  1.0000
  H   H28       1.0  0.8165896214312486  0.644172585264807  0.7830789526348416  1.0000
  H   H29       1.0  0.31658962140101926  0.8558274144814926  0.28307895279537293  1.0000
  H   H30       1.0  0.6834103786070622  0.8558274144814926  0.21692104716364943  1.0000
  H   H31       1.0  0.8165896212782948  0.3558274142236137  0.28307895243828995  1.0000
  H   H32       1.0  0.18341037872978663  0.3558274142236137  0.21692104752073244  1.0000
  H   H33       1.0  0.7192043443626092  0.028764945122883957  0.6540654251872178  1.0000
  H   H34       1.0  0.28079565585080296  0.028764945122883957  0.8459345746882714  1.0000
  H   H35       1.0  0.21920434448533363  0.5287649453807628  0.6540654255443007  1.0000
  H   H36       1.0  0.7807956558286552  0.5287649453807628  0.8459345748078249  1.0000
  H   H37       1.0  0.2807956556978493  0.9712350543655367  0.3459345744917196  1.0000
  H   H38       1.0  0.7192043443102321  0.9712350543655367  0.15406542546730276  1.0000
  H   H39       1.0  0.7807956556757015  0.4712350541076578  0.3459345746112733  1.0000
  H   H40       1.0  0.21920434433237995  0.4712350541076578  0.15406542534774909  1.0000
  H   H41       1.0  0.7862321463304871  0.20197426033985197  0.653919477282818  1.0000
  H   H42       1.0  0.2137678538829251  0.20197426033985197  0.8460805225926712  1.0000
  H   H43       1.0  0.2862321463526349  0.7019742605977308  0.6539194771632643  1.0000
  H   H44       1.0  0.7137678538607773  0.7019742605977308  0.8460805227122247  1.0000
  H   H45       1.0  0.21376785383054803  0.7980257401759057  0.3460805228727561  1.0000
  H   H46       1.0  0.7862321461775335  0.7980257401759057  0.1539194770862663  1.0000
  H   H47       1.0  0.7137678538084002  0.29802573991802683  0.34608052299230974  1.0000
  H   H48       1.0  0.28623214619968124  0.29802573991802683  0.15391947696671265  1.0000
  H   H49       1.0  0.8704388392034379  0.8475659668250142  0.7100231986250926  1.0000
  H   H50       1.0  0.12956116100997422  0.8475659668250142  0.7899768012503965  1.0000
  H   H51       1.0  0.3704388393261624  0.3475659675944723  0.7100231989821756  1.0000
  H   H52       1.0  0.6295611609878266  0.3475659675944723  0.7899768013699503  1.0000
  H   H53       1.0  0.12956116085702057  0.15243403266340652  0.2899768010538448  1.0000
  H   H54       1.0  0.8704388391510609  0.15243403266340652  0.2100231989051775  1.0000
  H   H55       1.0  0.6295611608348727  0.6524340329212853  0.2899768011733985  1.0000
  H   H56       1.0  0.3704388391732087  0.6524340329212853  0.21002319878562387  1.0000
  C   C1        1.0  0.6684985874960212  0.6408596473773935  0.588608344638126  1.0000
  C   C2        1.0  0.331501412717391  0.6408596473773935  0.9113916552373632  1.0000
  C   C3        1.0  0.16849858751816899  0.14085964814685178  0.5886083445185722  1.0000
  C   C4        1.0  0.8315014126952432  0.14085964814685178  0.911391655356917  1.0000
  C   C5        1.0  0.33150141266501393  0.3591403521110271  0.4113916555174482  1.0000
  C   C6        1.0  0.6684985873430674  0.3591403521110271  0.0886083444415742  1.0000
  C   C7        1.0  0.8315014125422896  0.8591403523689058  0.4113916551603652  1.0000
  C   C8        1.0  0.16849858746579194  0.8591403523689058  0.08860834479865717  1.0000
  C   C9        1.0  0.7081899497932932  0.7798166211575147  0.5720742126801567  1.0000
  C   C10       1.0  0.29181005042011904  0.7798166211575147  0.9279257871953324  1.0000
  C   C11       1.0  0.20818994882283035  0.2798166208996359  0.572074213040564  1.0000
  C   C12       1.0  0.7918100503979713  0.2798166208996359  0.9279257873148861  1.0000
  C   C13       1.0  0.29181005026716533  0.22018337935824298  0.42792578699878075  1.0000
  C   C14       1.0  0.7081899497409162  0.22018337935824298  0.07207421296024165  1.0000
  C   C15       1.0  0.7918100502450176  0.7201833796161218  0.4279257871183344  1.0000
  C   C16       1.0  0.2081899497630639  0.7201833796161218  0.07207421284068799  1.0000
  C   C17       1.0  0.4592383575749921  0.8043694342130677  0.5184578365536909  1.0000
  C   C18       1.0  0.5407616427389967  0.8043694342130677  0.9815421637984348  1.0000
  C   C19       1.0  0.9592383574522676  0.304369433955189  0.518457836196608  1.0000
  C   C20       1.0  0.040761642761144516  0.304369433955189  0.981542163678881  1.0000
  C   C21       1.0  0.5407616425860431  0.19563056630268985  0.4815421636018831  1.0000
  C   C22       1.0  0.4592383574220384  0.19563056630268985  0.01845783635713926  1.0000
  C   C23       1.0  0.040761642608190846  0.6956305655332317  0.4815421634823294  1.0000
  C   C24       1.0  0.9592383573998906  0.6956305655332317  0.01845783647669292  1.0000
  C   C25       1.0  0.5309414756323837  0.5935141413226195  0.5705905184726612  1.0000
  C   C26       1.0  0.4690585245810286  0.5935141413226195  0.929409481402828  1.0000
  C   C27       1.0  0.03094147575510809  0.09351414106474074  0.5705905188297442  1.0000
  C   C28       1.0  0.9690585245588808  0.09351414106474074  0.9294094815223816  1.0000
  C   C29       1.0  0.46905852442807483  0.4064858581658011  0.4294094812062763  1.0000
  C   C30       1.0  0.5309414755800066  0.4064858581658011  0.07059051875274612  1.0000
  C   C31       1.0  0.9690585244059272  0.9064858584236799  0.42940948132582984  1.0000
  C   C32       1.0  0.0309414756021544  0.9064858584236799  0.07059051863319246  1.0000
  C   C33       1.0  0.7638438343389465  0.11347887526668919  0.6837310297670053  1.0000
  C   C34       1.0  0.23615616597504233  0.11347887526668919  0.8162689705851204  1.0000
  C   C35       1.0  0.26384383436109426  0.6134788755245679  0.6837310296474516  1.0000
  C   C36       1.0  0.7361561658523179  0.6134788755245679  0.8162689702280375  1.0000
  C   C37       1.0  0.2361561658220887  0.8865211242217315  0.3162689703885688  1.0000
  C   C38       1.0  0.7638438341859929  0.8865211242217315  0.18373102957045356  1.0000
  C   C39       1.0  0.7361561657999408  0.3865211249911896  0.3162689705081224  1.0000
  C   C40       1.0  0.2638438342081406  0.3865211249911896  0.18373102945089992  1.0000
  C   C41       1.0  1.7914222096083245e-10  0.1527152271302076  0.7500000000565092  1.0000
  C   C42       1.0  0.5000000001569943  0.6527152273880864  0.7500000001760628  1.0000
  C   C43       1.0  2.6188528252849473e-11  0.847284772358213  0.24999999985995752  1.0000
  C   C44       1.0  0.5000000000040408  0.34728477210033426  0.24999999997951117  1.0000
  C   C45       1.0  0.9364539784297466  0.9311185941890128  0.7306863144310768  1.0000
  C   C46       1.0  0.06354602178366558  0.9311185941890128  0.7693136854444124  1.0000
  C   C47       1.0  0.4364539784518944  0.431118593931134  0.7306863143115232  1.0000
  C   C48       1.0  0.5635460217615178  0.431118593931134  0.769313685563966  1.0000
  C   C49       1.0  0.06354602173128851  0.0688814063267448  0.26931368572449726  1.0000
  C   C50       1.0  0.9364539782767931  0.0688814063267448  0.23068631423452515  1.0000
  C   C51       1.0  0.5635460217091407  0.5688814065846236  0.26931368584405085  1.0000
  C   C52       1.0  0.43645397839951733  0.5688814065846236  0.2306863145916081  1.0000
  N   N1        1.0  0.5957964035439391  0.8521876601454809  0.5373560905387307  1.0000
  N   N2        1.0  0.40420359567686237  0.8521876601454809  0.9626439098167193  1.0000
  N   N3        1.0  0.09579640356608694  0.35218766091493897  0.5373560904191771  1.0000
  N   N4        1.0  0.904203595554138  0.35218766091493897  0.9626439094596364  1.0000
  N   N5        1.0  0.4042035955239088  0.14781233934293986  0.46264390962016777  1.0000
  N   N6        1.0  0.5957964044841727  0.14781233934293986  0.03735609033885462  1.0000
  N   N7        1.0  0.9042035955017609  0.6478123396008186  0.4626439097397214  1.0000
  N   N8        1.0  0.0957964045063205  0.6478123396008186  0.03735609021930096  1.0000
  N   N9        1.0  0.429824135653547  0.6731050613153983  0.5359489416531263  1.0000
  N   N10       1.0  0.5701758645598651  0.6731050613153983  0.9640510582223627  1.0000
  N   N11       1.0  0.9298241356313993  0.1731050610575195  0.5359489417726799  1.0000
  N   N12       1.0  0.07017586458201305  0.1731050610575195  0.9640510581028092  1.0000
  N   N13       1.0  0.5701758644069116  0.32689493920035934  0.46405105802581115  1.0000
  N   N14       1.0  0.4298241356011699  0.32689493920035934  0.03594894193321125  1.0000
  N   N15       1.0  0.07017586452963595  0.8268949384309012  0.46405105838289407  1.0000
  N   N16       1.0  0.9298241355790222  0.8268949384309012  0.03594894205276491  1.0000
  N   N17       1.0  0.8984611304330172  0.06732143617542242  0.7187949338031987  1.0000
  N   N18       1.0  0.10153886988097142  0.06732143617542242  0.781205066548927  1.0000
  N   N19       1.0  0.39846113045516524  0.5673214364333012  0.7187949336836452  1.0000
  N   N20       1.0  0.601538869758247  0.5673214364333012  0.7812050661918439  1.0000
  N   N21       1.0  0.10153886972801776  0.9326785633129983  0.2812050663523753  1.0000
  N   N22       1.0  0.8984611302800637  0.9326785633129983  0.21879493360664712  1.0000
  N   N23       1.0  0.6015388697058699  0.4326785630551194  0.2812050664719289  1.0000
  N   N24       1.0  0.39846113030221153  0.4326785630551194  0.21879493348709345  1.0000
  O   O1        1.0  0.36480968724993856  0.8769328923950676  0.4870862306200603  1.0000
  O   O2        1.0  0.6351903127581429  0.8769328923950676  0.012913769338962069  1.0000
  O   O3        1.0  0.8648096872277908  0.37693289213718884  0.487086230739614  1.0000
  O   O4        1.0  0.13519031278029073  0.37693289213718884  0.01291376921940841  1.0000
  O   O5        1.0  0.6351903129110966  0.12306710812068997  0.5129137695355138  1.0000
  O   O6        1.0  0.36480968730231556  0.12306710812068997  0.9870862303399752  1.0000
  O   O7        1.0  0.1351903129332444  0.6230671073512318  0.5129137694159601  1.0000
  O   O8        1.0  0.8648096872801678  0.6230671073512318  0.987086230459529  1.0000
  O   O9        1.0  0.8280997516462164  0.8367784813621763  0.5858053407507171  1.0000
  O   O10       1.0  0.1719002485671957  0.8367784813621763  0.9141946591247718  1.0000
  O   O11       1.0  0.3280997506757536  0.33677848110429737  0.5858053411111245  1.0000
  O   O12       1.0  0.6719002485450479  0.33677848110429737  0.9141946592443256  1.0000
  O   O13       1.0  0.1719002484142421  0.16322151915358143  0.4141946589282203  1.0000
  O   O14       1.0  0.8280997515938394  0.16322151915358143  0.08580534103080206  1.0000
  O   O15       1.0  0.6719002483920943  0.6632215183841232  0.41419465904777397  1.0000
  O   O16       1.0  0.32809975161598715  0.6632215183841232  0.0858053409112484  1.0000
  S   S1        1.0  1.7914222096083245e-10  0.32678541993875104  0.7500000000565092  1.0000
  S   S2        1.0  0.5000000001569943  0.8267854191692928  0.7500000001760628  1.0000
  S   S3        1.0  2.6188528252849473e-11  0.6732145805770067  0.24999999985995752  1.0000
  S   S4        1.0  0.5000000000040408  0.1732145803191278  0.24999999997951117  1.0000
  I   I1        1.0  0.8184964241222316  0.517543964794542  0.6443477037188003  1.0000
  I   I2        1.0  0.18150357509856996  0.517543964794542  0.8556522966366498  1.0000
  I   I3        1.0  0.3184964241443794  0.017543965564000168  0.6443477035992468  1.0000
  I   I4        1.0  0.6815035760690329  0.017543965564000168  0.8556522962762425  1.0000
  I   I5        1.0  0.18150357603880354  0.4824560346938787  0.3556522964367737  1.0000
  I   I6        1.0  0.8184964239692779  0.4824560346938787  0.14434770352224863  1.0000
  I   I7        1.0  0.6815035760166558  0.9824560349517574  0.3556522965563274  1.0000
  I   I8        1.0  0.31849642399142575  0.9824560349517574  0.14434770340269498  1.0000
