data_image0
_chemical_formula_structural       H44C52N6O4S4
_chemical_formula_sum              "H44 C52 N6 O4 S4"
_cell_length_a       9.411600768998294
_cell_length_b       10.093234599498913
_cell_length_c       11.997735621560164
_cell_angle_alpha    91.62500172117593
_cell_angle_beta     102.34261299421586
_cell_angle_gamma    101.68757813248497

_space_group_name_H-M_alt    "P 1"
_space_group_IT_number       1

loop_
  _space_group_symop_operation_xyz
  'x, y, z'

loop_
  _atom_site_type_symbol
  _atom_site_label
  _atom_site_symmetry_multiplicity
  _atom_site_fract_x
  _atom_site_fract_y
  _atom_site_fract_z
  _atom_site_occupancy
  H   H1        1.0  0.3551196967966606  0.9962986371378687  0.478630369394488  1.0000
  H   H2        1.0  0.6448803032097156  0.003701362654131147  0.5213696311846961  1.0000
  H   H3        1.0  0.29129192501616874  0.8208800288560715  0.31679198473223263  1.0000
  H   H4        1.0  0.7087080749891429  0.17911997093778584  0.683208015013329  1.0000
  H   H5        1.0  0.42511626442340156  0.12476040765729025  0.09269618721187337  1.0000
  H   H6        1.0  0.57488373558191  0.875239592136567  0.9073038125336882  1.0000
  H   H7        1.0  0.484110969738035  0.30445402666175275  0.2549382202874801  1.0000
  H   H8        1.0  0.5158890302683413  0.6955459731302469  0.7450617802917041  1.0000
  H   H9        1.0  0.9180982443876278  0.47680243064510947  0.5828995416601492  1.0000
  H   H10       1.0  0.0819017556176838  0.5231975691487478  0.4171004580854124  1.0000
  H   H11       1.0  0.13922451504596156  0.600813235763873  0.7236190997711748  1.0000
  H   H12       1.0  0.8607754849593501  0.39918676402998426  0.27638089997438675  1.0000
  H   H13       1.0  0.11769699637937282  0.67352924936305  0.9201473133484318  1.0000
  H   H14       1.0  0.8823030038719154  0.3264707514453673  0.07985268646409648  1.0000
  H   H15       1.0  0.8672193955828266  0.6294891683473248  0.9670066807290528  1.0000
  H   H16       1.0  0.13278060466952646  0.370510832459235  0.03299331991709808  1.0000
  H   H17       1.0  0.6480448976484839  0.5072986843413314  0.8283508949649572  1.0000
  H   H18       1.0  0.3519551023568277  0.49270131545252577  0.17164910478060438  1.0000
  H   H19       1.0  0.16775867404261666  0.21040471002119707  0.32465899284391886  1.0000
  H   H20       1.0  0.832241325962695  0.7895952897726601  0.6753410069016427  1.0000
  H   H21       1.0  0.014263602489357857  0.20405596108962773  0.3889395062115233  1.0000
  H   H22       1.0  0.9857363977619304  0.7959440397187897  0.611060493601005  1.0000
  H   H23       1.0  0.11374709874415406  0.07049061008038929  0.4056754183471354  1.0000
  H   H24       1.0  0.8862529012611576  0.9295093897134681  0.5943245813984261  1.0000
  H   H25       1.0  0.027967308349321405  0.29538654803379977  0.5497948692186321  1.0000
  H   H26       1.0  0.9720326916559903  0.7046134517600576  0.4502051305269294  1.0000
  H   H27       1.0  0.1961807755029431  0.3934107253014695  0.63107725589957  1.0000
  H   H28       1.0  0.8038192245023685  0.6065892744923879  0.3689227438459916  1.0000
  H   H29       1.0  0.27864730723208914  0.06792519084553673  0.6283360439529546  1.0000
  H   H30       1.0  0.7213526927742872  0.9320748089464632  0.37166395662622964  1.0000
  H   H31       1.0  0.2618998681204011  0.9091354915353853  0.7786959396456807  1.0000
  H   H32       1.0  0.7381001318849105  0.09086450825847199  0.2213040600998808  1.0000
  H   H33       1.0  0.11071910264962453  0.9363693817514527  0.9212564857883555  1.0000
  H   H34       1.0  0.8892808976016637  0.06363061905696446  0.07874351402417258  1.0000
  H   H35       1.0  0.9810571919675275  0.12970866689310676  0.9136137855358578  1.0000
  H   H36       1.0  0.01894280803884869  0.870291332898893  0.08638621504332636  1.0000
  H   H37       1.0  0.9939372255899569  0.28786251307864036  0.7613255144996559  1.0000
  H   H38       1.0  0.0060627744164193625  0.7121374867133593  0.23867448607952824  1.0000
  H   H39       1.0  0.3736418323300853  0.6806610679771634  0.9198138615941284  1.0000
  H   H40       1.0  0.6263581676752263  0.319338931816694  0.08018613815143318  1.0000
  H   H41       1.0  0.6093540746725455  0.7415781272982856  0.06935508490423051  1.0000
  H   H42       1.0  0.3906459253327661  0.2584218724955716  0.9306449148413309  1.0000
  H   H43       1.0  0.2643550531555247  0.4396362876441833  0.8509358417717223  1.0000
  H   H44       1.0  0.7356449468508516  0.5603637121478164  0.14906415880746188  1.0000
  C   C1        1.0  0.3698628064945842  0.025521871388565043  0.3943623340427659  1.0000
  C   C2        1.0  0.6301371935117921  0.974478128403435  0.6056376665364183  1.0000
  C   C3        1.0  0.3344438606372343  0.9263018332919833  0.3043284003059774  1.0000
  C   C4        1.0  0.6655561393680773  0.0736981665018741  0.6956715994395841  1.0000
  C   C5        1.0  0.35767006554492514  0.9652308863799016  0.19806301560862305  1.0000
  C   C6        1.0  0.6423299344614513  0.034769113412098214  0.8019369849705611  1.0000
  C   C7        1.0  0.41105088323738076  0.09968126712266076  0.17764941065695808  1.0000
  C   C8        1.0  0.5889491167689955  0.900318732669339  0.8223505899222261  1.0000
  C   C9        1.0  0.4442645895755014  0.1983761142293485  0.2675871638447836  1.0000
  C   C10       1.0  0.5557354104298101  0.8016238855645087  0.7324128359007779  1.0000
  C   C11       1.0  0.4238216534476798  0.16046716041765288  0.37529491890598066  1.0000
  C   C12       1.0  0.5761783465576318  0.8395328393762045  0.6247050808395809  1.0000
  C   C13       1.0  0.6189797070252234  0.32489219045166506  0.5137337833618278  1.0000
  C   C14       1.0  0.3810202932271295  0.6751078103548946  0.486266217284323  1.0000
  C   C15       1.0  0.633785443681868  0.4051173755465773  0.613118410733278  1.0000
  C   C16       1.0  0.36621455656942037  0.59488262526184  0.3868815890792503  1.0000
  C   C17       1.0  0.3671843647248194  0.2949070625447181  0.5286861248906802  1.0000
  C   C18       1.0  0.6328156355264688  0.7050929382636992  0.4713138749218481  1.0000
  C   C19       1.0  0.7654331905186467  0.4815176294269515  0.6935288824250314  1.0000
  C   C20       1.0  0.23456680948772962  0.5184823703650483  0.30647111815415284  1.0000
  C   C21       1.0  0.9072719809256768  0.5099845301352035  0.6672352018058044  1.0000
  C   C22       1.0  0.09272801907963477  0.4900154696586539  0.33276479793975716  1.0000
  C   C23       1.0  0.03187927034829467  0.5791482368437777  0.7478423772530144  1.0000
  C   C24       1.0  0.9681207296580815  0.42085176294822213  0.25215762332616987  1.0000
  C   C25       1.0  0.01974934094547774  0.6226089504017245  0.8562549818038832  1.0000
  C   C26       1.0  0.9802506590598339  0.37739104939213297  0.1437450179416785  1.0000
  C   C27       1.0  0.8796552015075125  0.5979192774665872  0.8826595454797133  1.0000
  C   C28       1.0  0.12034479849886379  0.40208072232541253  0.11734045509947096  1.0000
  C   C29       1.0  0.7545735886309177  0.5291099328451285  0.802744503993629  1.0000
  C   C30       1.0  0.2454264113754585  0.4708900669468713  0.19725549658555513  1.0000
  C   C31       1.0  0.1245419301276155  0.18040435952913267  0.39988274345207864  1.0000
  C   C32       1.0  0.8754580698776961  0.8195956402647248  0.6001172562934829  1.0000
  C   C33       1.0  0.14220610764800584  0.29002890483874844  0.5925111537627183  1.0000
  C   C34       1.0  0.8577938923583706  0.7099710949532514  0.40748884681646586  1.0000
  C   C35       1.0  0.13767954157056497  0.18977654369743607  0.683973678241057  1.0000
  C   C36       1.0  0.8623204584347466  0.8102234560964213  0.3160263215045045  1.0000
  C   C37       1.0  0.21293458834942078  0.08298685356261559  0.690391201411348  1.0000
  C   C38       1.0  0.7870654116569555  0.9170131462293842  0.3096087991678361  1.0000
  C   C39       1.0  0.20368289392017502  0.9923562952533034  0.7756523892228449  1.0000
  C   C40       1.0  0.7963171060851366  0.007643704540553805  0.22434761052271668  1.0000
  C   C41       1.0  0.11934139039623831  0.008090563095780443  0.8557225140935527  1.0000
  C   C42       1.0  0.8806586096090733  0.9919094366980767  0.14427748565200876  1.0000
  C   C43       1.0  0.045630148595733874  0.11534230642050732  0.850713278333137  1.0000
  C   C44       1.0  0.9543698514095778  0.8846576933733502  0.1492867214124246  1.0000
  C   C45       1.0  0.053766343802412034  0.20539791013826966  0.7651599975299517  1.0000
  C   C46       1.0  0.9462336564488762  0.7946020906701476  0.23484000228257665  1.0000
  C   C47       1.0  0.42974703695118005  0.6015191861114868  0.9539830352510071  1.0000
  C   C48       1.0  0.5702529630551962  0.3984808136805131  0.046016965328177055  1.0000
  C   C49       1.0  0.5615199988822405  0.6358905521736025  0.038457639574848816  1.0000
  C   C50       1.0  0.4384800011230712  0.3641094476202548  0.9615423601707128  1.0000
  C   C51       1.0  0.3681683189754617  0.4659194271094397  0.915666541171977  1.0000
  C   C52       1.0  0.6318316812758266  0.5340805736989777  0.08433345864055125  1.0000
  N   N1        1.0  0.46329312167031717  0.26210738793547084  0.46845641771624347  1.0000
  N   N2        1.0  0.5367068783349944  0.7378926118583864  0.5315435820293181  1.0000
  N   N3        1.0  0.21810557671357356  0.2578089403388487  0.5040733510999735  1.0000
  N   N4        1.0  0.7818944235377148  0.7421910604695686  0.4959266487125547  1.0000
  N   N5        1.0  0.32120735822726215  0.8615833908384991  0.10315525100268333  1.0000
  N   N6        1.0  0.6787926417780495  0.1384166089553583  0.8968447487428782  1.0000
  O   O1        1.0  0.24437117019807383  0.7491272152776653  0.11434537562918874  1.0000
  O   O2        1.0  0.7556288300532146  0.25087278553075204  0.8856546241833395  1.0000
  O   O3        1.0  0.3667605530946722  0.8923875373613149  0.01533903850547772  1.0000
  O   O4        1.0  0.6332394471576808  0.10761246344524504  0.9846609621406732  1.0000
  S   S1        1.0  0.4609537301694727  0.4000780952666294  0.6482623422233238  1.0000
  S   S2        1.0  0.5390462698358389  0.5999219045272279  0.3517376575222376  1.0000
  S   S3        1.0  0.7484376528128583  0.2846481645409834  0.4476444460324221  1.0000
  S   S4        1.0  0.25156234719351783  0.7153518352510164  0.552355554546762  1.0000
