data_image0
_chemical_formula_structural       H104C104N24O40S8
_chemical_formula_sum              "H104 C104 N24 O40 S8"
_cell_length_a       30.817538616678
_cell_length_b       5.069024373635964
_cell_length_c       20.179224807911634
_cell_angle_alpha    90.0
_cell_angle_beta     124.38717636990015
_cell_angle_gamma    90.0

_space_group_name_H-M_alt    "P 1"
_space_group_IT_number       1

loop_
  _space_group_symop_operation_xyz
  'x, y, z'

loop_
  _atom_site_type_symbol
  _atom_site_label
  _atom_site_symmetry_multiplicity
  _atom_site_fract_x
  _atom_site_fract_y
  _atom_site_fract_z
  _atom_site_occupancy
  H   H1        1.0  0.23618514095267115  0.5827193622036687  0.002434125205408574  1.0000
  H   H2        1.0  0.763814859214703  0.5827193622036687  0.49756587485115356  1.0000
  H   H3        1.0  0.7361851406471641  0.0827193615759309  0.0024341249103538936  1.0000
  H   H4        1.0  0.2638148591270042  0.0827193615759309  0.49756587480560277  1.0000
  H   H5        1.0  0.7638148592055262  0.4172806370790407  0.9975658753111762  1.0000
  H   H6        1.0  0.23618514094464763  0.4172806370790407  0.502434125170869  1.0000
  H   H7        1.0  0.26381485911898067  0.9172806377067784  0.9975658747710632  1.0000
  H   H8        1.0  0.7361851406391406  0.9172806377067784  0.5024341248758144  1.0000
  H   H9        1.0  0.1885860661369397  0.25429461864579556  0.8964788460485985  1.0000
  H   H10       1.0  0.8114139336211816  0.25429461864579556  0.6035211535982791  1.0000
  H   H11       1.0  0.6885860662246385  0.7542946173007671  0.8964788460941493  1.0000
  H   H12       1.0  0.31141393392668865  0.7542946173007671  0.6035211538933337  1.0000
  H   H13       1.0  0.8114139336292052  0.74570538260968  0.10352115363281862  1.0000
  H   H14       1.0  0.18858606614496318  0.74570538260968  0.39647884608313805  1.0000
  H   H15       1.0  0.3114139339347122  0.24570538198194222  0.10352115392787326  1.0000
  H   H16       1.0  0.6885860662326619  0.24570538198194222  0.3964788461286887  1.0000
  H   H17       1.0  0.09354951145124656  0.06271047573834942  0.9852966225760383  1.0000
  H   H18       1.0  0.9064504886989273  0.06271047573834942  0.514703377906007  1.0000
  H   H19       1.0  0.5935495111457395  0.5627104763660872  0.9852966222809838  1.0000
  H   H20       1.0  0.4064504886112285  0.5627104763660872  0.5147033778604562  1.0000
  H   H21       1.0  0.9064504887069509  0.9372895235443599  0.014703377940546518  1.0000
  H   H22       1.0  0.09354951145927005  0.9372895235443599  0.48529662261057793  1.0000
  H   H23       1.0  0.4064504886204053  0.4372895248893884  0.014703377400433336  1.0000
  H   H24       1.0  0.593549511153763  0.4372895248893884  0.48529662231552323  1.0000
  H   H25       1.0  0.14135324643094357  0.3940068843203066  0.09212784108453245  1.0000
  H   H26       1.0  0.8586467537364305  0.3940068843203066  0.40787215897202966  1.0000
  H   H27       1.0  0.6413532465186425  0.8940068849480444  0.09212784113008325  1.0000
  H   H28       1.0  0.3586467536487318  0.8940068849480444  0.4078721589264788  1.0000
  H   H29       1.0  0.858646753728407  0.6059931149624027  0.9078721589374901  1.0000
  H   H30       1.0  0.14135324642292008  0.6059931149624027  0.5921278410499929  1.0000
  H   H31       1.0  0.35864675364070825  0.10599311433466493  0.9078721588919394  1.0000
  H   H32       1.0  0.6413532465106189  0.10599311433466493  0.5921278410955437  1.0000
  H   H33       1.0  0.31139695100095627  0.5472549144620114  0.18605882186181502  1.0000
  H   H34       1.0  0.6886030491664179  0.5472549144620114  0.31394117819474704  1.0000
  H   H35       1.0  0.811396951088655  0.04725491383427356  0.1860588219073658  1.0000
  H   H36       1.0  0.18860304907871905  0.04725491383427356  0.31394117814919625  1.0000
  H   H37       1.0  0.6886030491583944  0.4527450867934642  0.8139411781602075  1.0000
  H   H38       1.0  0.31139695099293274  0.4527450867934642  0.6860588218272755  1.0000
  H   H39       1.0  0.18860304907069558  0.952745087421202  0.8139411781146566  1.0000
  H   H40       1.0  0.8113969510806315  0.952745087421202  0.6860588218728263  1.0000
  H   H41       1.0  0.28385814275080024  0.43945162536319976  0.2378463429411441  1.0000
  H   H42       1.0  0.7161418570222148  0.43945162536319976  0.26215365726937473  1.0000
  H   H43       1.0  0.7838581428384991  0.9394516259909377  0.23784634298669496  1.0000
  H   H44       1.0  0.21614185732772187  0.9394516259909377  0.26215365756442954  1.0000
  H   H45       1.0  0.7161418570141913  0.5605483739195095  0.7621536572348353  1.0000
  H   H46       1.0  0.2838581427427767  0.5605483739195095  0.7378463429066046  1.0000
  H   H47       1.0  0.21614185731969834  0.060548375264538  0.7621536575298901  1.0000
  H   H48       1.0  0.7838581428304755  0.060548375264538  0.7378463429521553  1.0000
  H   H49       1.0  0.11577658421197869  0.6796617960486889  0.7952308676699998  1.0000
  H   H50       1.0  0.8842234159381952  0.6796617960486889  0.7047691328120456  1.0000
  H   H51       1.0  0.6157765839064716  0.17966179739371743  0.7952308673749451  1.0000
  H   H52       1.0  0.3842234158504964  0.17966179739371743  0.7047691327664948  1.0000
  H   H53       1.0  0.8842234159462188  0.32033820323402035  0.20476913284658518  1.0000
  H   H54       1.0  0.11577658422000217  0.32033820323402035  0.2952308677045393  1.0000
  H   H55       1.0  0.3842234158585199  0.8203382038617582  0.2047691328010344  1.0000
  H   H56       1.0  0.6157765839144951  0.8203382038617582  0.29523086740948457  1.0000
  H   H57       1.0  0.11067923120062817  0.8979709515058043  0.11838689013877854  1.0000
  H   H58       1.0  0.88932076857354  0.8979709515058043  0.3816131095771779  1.0000
  H   H59       1.0  0.6106792312883269  0.3979709508780665  0.11838689018432928  1.0000
  H   H60       1.0  0.3893207688790471  0.3979709508780665  0.3816131098722327  1.0000
  H   H61       1.0  0.8893207685655167  0.10202904974967127  0.8816131095426384  1.0000
  H   H62       1.0  0.1106792311926047  0.10202904974967127  0.618386890104239  1.0000
  H   H63       1.0  0.3893207688710236  0.6020290484046428  0.8816131098376933  1.0000
  H   H64       1.0  0.6106792312803034  0.6020290484046428  0.6183868901497898  1.0000
  H   H65       1.0  0.03822685602533032  0.5780778457567625  0.2664690024948253  1.0000
  H   H66       1.0  0.9617731441420437  0.5780778457567625  0.2335309975617368  1.0000
  H   H67       1.0  0.5382268561130291  0.07807784512902466  0.26646900254037603  1.0000
  H   H68       1.0  0.461773144054345  0.07807784512902466  0.23353099751618603  1.0000
  H   H69       1.0  0.9617731441340202  0.42192215549871315  0.7335309975271971  1.0000
  H   H70       1.0  0.03822685601730683  0.42192215549871315  0.7664690024602857  1.0000
  H   H71       1.0  0.4617731440463216  0.9219221541536846  0.7335309974816466  1.0000
  H   H72       1.0  0.5382268561050056  0.9219221541536846  0.7664690025058366  1.0000
  H   H73       1.0  0.9933171654164324  0.961598767477155  0.17152071856589615  1.0000
  H   H74       1.0  0.006682834357735877  0.961598767477155  0.3284792811500603  1.0000
  H   H75       1.0  0.4933171653287336  0.4615987668494171  0.17152071852034542  1.0000
  H   H76       1.0  0.5066828344454347  0.4615987668494171  0.32847928119561115  1.0000
  H   H77       1.0  0.006682834349712389  0.03840123377832064  0.8284792811155207  1.0000
  H   H78       1.0  0.993317165408409  0.03840123377832064  0.6715207185313566  1.0000
  H   H79       1.0  0.5066828344374112  0.5384012324332922  0.8284792811610716  1.0000
  H   H80       1.0  0.4933171653207101  0.5384012324332922  0.671520718485806  1.0000
  H   H81       1.0  0.1498995617170499  0.5189789229821776  0.21569713338743124  1.0000
  H   H82       1.0  0.850100438055965  0.5189789229821776  0.28430286682308764  1.0000
  H   H83       1.0  0.6498995618047487  0.01897892235443984  0.21569713343298202  1.0000
  H   H84       1.0  0.3501004383626254  0.01897892235443984  0.28430286662358  1.0000
  H   H85       1.0  0.8501004380479416  0.48102107827329793  0.7843028667885482  1.0000
  H   H86       1.0  0.14989956170902644  0.48102107827329793  0.7156971333528918  1.0000
  H   H87       1.0  0.3501004383534487  0.9810210789010357  0.7843028670836029  1.0000
  H   H88       1.0  0.6498995617967253  0.9810210789010357  0.7156971333984425  1.0000
  H   H89       1.0  0.9645624324411536  0.25991151608035595  0.09019059045286891  1.0000
  H   H90       1.0  0.03543756772622049  0.25991151608035595  0.40980940960369316  1.0000
  H   H91       1.0  0.4645624323534548  0.7599115147353275  0.0901905904073181  1.0000
  H   H92       1.0  0.5354375678139193  0.7599115147353275  0.40980940964924395  1.0000
  H   H93       1.0  0.035437567718197005  0.7400884851751196  0.9098094095691537  1.0000
  H   H94       1.0  0.9645624324331301  0.7400884851751196  0.5901905904183293  1.0000
  H   H95       1.0  0.5354375678058958  0.24008848454738183  0.9098094096147046  1.0000
  H   H96       1.0  0.4645624323454313  0.24008848454738183  0.5901905903727784  1.0000
  H   H97       1.0  0.9700280283642203  0.4687530686098537  0.024713518707789487  1.0000
  H   H98       1.0  0.02997197180200064  0.4687530686098537  0.475286481843335  1.0000
  H   H99       1.0  0.47002802827767465  0.9687530672648255  0.024713518167676304  1.0000
  H   H100      1.0  0.5299719718896995  0.9687530672648255  0.4752864818888858  1.0000
  H   H101      1.0  0.02997197179397715  0.5312469326456217  0.9752864818087953  1.0000
  H   H102      1.0  0.9700280283561967  0.5312469326456217  0.5247135186732501  1.0000
  H   H103      1.0  0.529971971881676  0.031246932017884005  0.9752864818543462  1.0000
  H   H104      1.0  0.470028028268498  0.031246932017884005  0.5247135186276992  1.0000
  C   C1        1.0  0.13845456925805444  0.12981536514648795  0.9342261366150526  1.0000
  C   C2        1.0  0.8615454304989135  0.12981536514648795  0.5657738635263873  1.0000
  C   C3        1.0  0.6384545693457532  0.6298153657742257  0.9342261366606035  1.0000
  C   C4        1.0  0.3615454308044207  0.6298153657742257  0.565773863821442  1.0000
  C   C5        1.0  0.8615454305069372  0.8701846341362214  0.06577386356092688  1.0000
  C   C6        1.0  0.1384545692660779  0.8701846341362214  0.4342261366495922  1.0000
  C   C7        1.0  0.36154543081244417  0.37018463350848363  0.06577386385598151  1.0000
  C   C8        1.0  0.6384545693537766  0.37018463350848363  0.4342261366951429  1.0000
  C   C9        1.0  0.11260479973113213  0.9122646961515867  0.8742579417515894  1.0000
  C   C10       1.0  0.8873952004201949  0.9122646961515867  0.6257420582358936  1.0000
  C   C11       1.0  0.6126047994256251  0.41226469552384903  0.8742579414565347  1.0000
  C   C12       1.0  0.3873952003324962  0.41226469552384903  0.6257420581903427  1.0000
  C   C13       1.0  0.8873952004282185  0.08773530510388879  0.12574205827043305  1.0000
  C   C14       1.0  0.1126047997391556  0.08773530510388879  0.37425794178612903  1.0000
  C   C15       1.0  0.3873952003405197  0.5877353037588604  0.12574205822488227  1.0000
  C   C16       1.0  0.6126047994336485  0.5877353037588604  0.3742579414910743  1.0000
  C   C17       1.0  0.20491992191569777  0.4702778156677291  0.9988647869532441  1.0000
  C   C18       1.0  0.7950800782356293  0.4702778156677291  0.5011352130342389  1.0000
  C   C19       1.0  0.7049199220033967  0.9702778162954669  0.9988647869987948  1.0000
  C   C20       1.0  0.2950800781479305  0.9702778162954669  0.5011352129886881  1.0000
  C   C21       1.0  0.7950800782436528  0.5297221836149801  0.0011352130687785397  1.0000
  C   C22       1.0  0.20491992192372127  0.5297221836149801  0.4988647869877835  1.0000
  C   C23       1.0  0.29508007815595405  0.029722184960008627  0.0011352130232277129  1.0000
  C   C24       1.0  0.7049199220114201  0.029722184960008627  0.4988647870333344  1.0000
  C   C25       1.0  0.17806447521257415  0.28199741303959597  0.9390564007428128  1.0000
  C   C26       1.0  0.8219355245455471  0.28199741303959597  0.5609435989040648  1.0000
  C   C27       1.0  0.6780644753002729  0.7819974136673338  0.9390564007883635  1.0000
  C   C28       1.0  0.32193552445784834  0.7819974136673338  0.560943598858514  1.0000
  C   C29       1.0  0.8219355245535707  0.7180025862431134  0.06094359893860445  1.0000
  C   C30       1.0  0.17806447522059765  0.7180025862431134  0.4390564007773522  1.0000
  C   C31       1.0  0.3219355244658719  0.21800258561537564  0.060943598893053536  1.0000
  C   C32       1.0  0.6780644753082965  0.21800258561537564  0.439056400822903  1.0000
  C   C33       1.0  0.19230599180907335  0.5068865033207522  0.0546293123162044  1.0000
  C   C34       1.0  0.8076940083583006  0.5068865033207522  0.44537068774035765  1.0000
  C   C35       1.0  0.6923059918967722  0.006886504665780669  0.0546293123617552  1.0000
  C   C36       1.0  0.307694008270602  0.006886504665780669  0.44537068769480687  1.0000
  C   C37       1.0  0.8076940083502772  0.4931134959619571  0.9453706877058181  1.0000
  C   C38       1.0  0.19230599180104985  0.4931134959619571  0.5546293122816649  1.0000
  C   C39       1.0  0.3076940082625785  0.9931134965896949  0.9453706876602673  1.0000
  C   C40       1.0  0.6923059918887488  0.9931134965896949  0.5546293123272157  1.0000
  C   C41       1.0  0.12469507703253384  0.17637720083770259  0.9886221204194022  1.0000
  C   C42       1.0  0.8753049231187933  0.17637720083770259  0.5113778795680807  1.0000
  C   C43       1.0  0.6246950771202326  0.6763772014654403  0.9886221204649531  1.0000
  C   C44       1.0  0.3753049230310945  0.6763772014654403  0.5113778795225299  1.0000
  C   C45       1.0  0.8753049231268168  0.8236227984450067  0.011377879602620329  1.0000
  C   C46       1.0  0.12469507704055732  0.8236227984450067  0.4886221204539418  1.0000
  C   C47       1.0  0.375304923039118  0.323622797817269  0.011377879557069459  1.0000
  C   C48       1.0  0.6246950771282562  0.323622797817269  0.4886221204994927  1.0000
  C   C49       1.0  0.15165444139222103  0.36375507476153635  0.04921700216715092  1.0000
  C   C50       1.0  0.8483455587751529  0.36375507476153635  0.4507829978894112  1.0000
  C   C51       1.0  0.6516544410867139  0.8637550753892741  0.0492170018720962  1.0000
  C   C52       1.0  0.34834555868745426  0.8637550753892741  0.4507829978438604  1.0000
  C   C53       1.0  0.8483455587671295  0.636244924521173  0.9507829978548715  1.0000
  C   C54       1.0  0.15165444138419754  0.636244924521173  0.5492170021326115  1.0000
  C   C55       1.0  0.3483455586794308  0.1362449258662014  0.9507829978093209  1.0000
  C   C56       1.0  0.6516544410786905  0.1362449258662014  0.5492170018375567  1.0000
  C   C57       1.0  0.04845247333191767  0.9583775677360521  0.13609680006821417  1.0000
  C   C58       1.0  0.9515475268354564  0.9583775677360521  0.3639031999883478  1.0000
  C   C59       1.0  0.5484524734196164  0.4583775690810805  0.13609680011376496  1.0000
  C   C60       1.0  0.4515475267477576  0.4583775690810805  0.3639031999427971  1.0000
  C   C61       1.0  0.9515475268274329  0.04162243154665724  0.8639031999538084  1.0000
  C   C62       1.0  0.04845247332389417  0.04162243154665724  0.6360968000336747  1.0000
  C   C63       1.0  0.45154752673973414  0.5416224321743951  0.8639031999082575  1.0000
  C   C64       1.0  0.548452473411593  0.5416224321743951  0.6360968000792255  1.0000
  C   C65       1.0  0.026097196092930985  0.1848166690364547  0.07729625789442093  1.0000
  C   C66       1.0  0.9739028040744431  0.1848166690364547  0.4227037421621412  1.0000
  C   C67       1.0  0.5260971961806298  0.6848166696641924  0.07729625793997169  1.0000
  C   C68       1.0  0.4739028039867444  0.6848166696641924  0.4227037421165904  1.0000
  C   C69       1.0  0.9739028040664196  0.8151833302462547  0.9227037421276016  1.0000
  C   C70       1.0  0.0260971960849075  0.8151833302462547  0.5772962578598814  1.0000
  C   C71       1.0  0.4739028039787208  0.3151833296185169  0.9227037420820509  1.0000
  C   C72       1.0  0.5260971961726063  0.3151833296185169  0.5772962579054322  1.0000
  C   C73       1.0  0.09317261035658927  0.832269906205619  0.1495750845405719  1.0000
  C   C74       1.0  0.9068273898107849  0.832269906205619  0.35042491551599025  1.0000
  C   C75       1.0  0.593172610049929  0.3322699075506474  0.14957508474007955  1.0000
  C   C76       1.0  0.406827389723086  0.3322699075506474  0.3504249154704394  1.0000
  C   C77       1.0  0.9068273898027613  0.1677300930770904  0.8504249154814506  1.0000
  C   C78       1.0  0.09317261034856579  0.1677300930770904  0.6495750845060323  1.0000
  C   C79       1.0  0.4068273897150625  0.6677300937048282  0.8504249154358999  1.0000
  C   C80       1.0  0.5931726100419055  0.6677300937048282  0.6495750847055399  1.0000
  C   C81       1.0  0.051932474203652365  0.6589273386358101  0.23129036566894182  1.0000
  C   C82       1.0  0.9480675259637217  0.6589273386358101  0.26870963438762024  1.0000
  C   C83       1.0  0.5519324738981453  0.15892733800807235  0.23129036537388703  1.0000
  C   C84       1.0  0.44806752587602294  0.15892733800807235  0.26870963434206946  1.0000
  C   C85       1.0  0.9480675259556982  0.34107266261966546  0.7687096343530808  1.0000
  C   C86       1.0  0.05193247419562888  0.34107266261966546  0.7312903656344023  1.0000
  C   C87       1.0  0.4480675258679994  0.841072661274637  0.76870963430753  1.0000
  C   C88       1.0  0.5519324738901219  0.841072661274637  0.7312903653393475  1.0000
  C   C89       1.0  0.027699708926889895  0.8697399963057698  0.17857547028842438  1.0000
  C   C90       1.0  0.9723002908472784  0.8697399963057698  0.3214245294275323  1.0000
  C   C91       1.0  0.5276997090145887  0.3697399976507982  0.1785754703339752  1.0000
  C   C92       1.0  0.4723002911527854  0.3697399976507982  0.3214245297225869  1.0000
  C   C93       1.0  0.972300290839255  0.13026000297693957  0.8214245293929926  1.0000
  C   C94       1.0  0.027699708918866407  0.13026000297693957  0.6785754702538849  1.0000
  C   C95       1.0  0.47230029114476196  0.6302600036046774  0.8214245296880474  1.0000
  C   C96       1.0  0.5276997090065653  0.6302600036046774  0.6785754702994357  1.0000
  C   C97       1.0  0.11508879567234691  0.6230707838823306  0.20340361150691214  1.0000
  C   C98       1.0  0.8849112041018214  0.6230707838823306  0.29659638820904444  1.0000
  C   C99       1.0  0.6150887957600457  0.12307078522735906  0.20340361155246292  1.0000
  C   C100      1.0  0.3849112044073284  0.12307078522735906  0.29659638850409914  1.0000
  C   C101      1.0  0.8849112040937979  0.3769292154003787  0.7965963881745048  1.0000
  C   C102      1.0  0.11508879566432341  0.3769292154003787  0.7034036114723725  1.0000
  C   C103      1.0  0.38491120439930493  0.8769292160281165  0.7965963884695597  1.0000
  C   C104      1.0  0.6150887957520222  0.8769292160281165  0.7034036115179234  1.0000
  N   N1        1.0  0.28595859027032006  0.5793232846291487  0.2027214001444856  1.0000
  N   N2        1.0  0.714041409897054  0.5793232846291487  0.2972785999120765  1.0000
  N   N3        1.0  0.7859585903580187  0.07932328400141099  0.20272140019003623  1.0000
  N   N4        1.0  0.21404140980935527  0.07932328400141099  0.2972785998665258  1.0000
  N   N5        1.0  0.7140414098890306  0.42067671662632683  0.797278599877537  1.0000
  N   N6        1.0  0.2859585902622966  0.42067671662632683  0.702721400109946  1.0000
  N   N7        1.0  0.21404140980133177  0.9206767152812984  0.7972785998319861  1.0000
  N   N8        1.0  0.7859585903499954  0.9206767152812984  0.7027214001554968  1.0000
  N   N9        1.0  0.09450673139440179  0.5379983047988104  0.24308534309734617  1.0000
  N   N10       1.0  0.9054932687729723  0.5379983047988104  0.25691465695921584  1.0000
  N   N11       1.0  0.5945067314821006  0.037998304171072576  0.24308534314289695  1.0000
  N   N12       1.0  0.40549326868527347  0.037998304171072576  0.25691465691366505  1.0000
  N   N13       1.0  0.9054932687649488  0.4620016964566652  0.7569146569246764  1.0000
  N   N14       1.0  0.09450673138637831  0.4620016964566652  0.7430853430628066  1.0000
  N   N15       1.0  0.40549326867725005  0.9620016951116367  0.7569146568791255  1.0000
  N   N16       1.0  0.5945067314740771  0.9620016951116367  0.7430853431083575  1.0000
  N   N17       1.0  0.9836424952529217  0.3101967862253808  0.06377441530423954  1.0000
  N   N18       1.0  0.016357504913299237  0.3101967862253808  0.4362255852468849  1.0000
  N   N19       1.0  0.48364249516637603  0.8101967848803524  0.0637744147641264  1.0000
  N   N20       1.0  0.516357505000998  0.8101967848803524  0.43622558529243566  1.0000
  N   N21       1.0  0.01635750490527575  0.6898032150300947  0.9362255852123453  1.0000
  N   N22       1.0  0.9836424952448982  0.6898032150300947  0.5637744152697001  1.0000
  N   N23       1.0  0.5163575049929745  0.18980321440235695  0.9362255852578962  1.0000
  N   N24       1.0  0.4836424951571993  0.18980321440235695  0.5637744152241492  1.0000
  O   O1        1.0  0.13469592118578883  0.8564805789019845  0.8358892958542338  1.0000
  O   O2        1.0  0.8653040785723325  0.8564805789019845  0.6641107037926438  1.0000
  O   O3        1.0  0.6346959212734877  0.356480580247013  0.8358892958997846  1.0000
  O   O4        1.0  0.36530407848463375  0.356480580247013  0.664110703747093  1.0000
  O   O5        1.0  0.865304078580356  0.14351942038072477  0.16411070382718326  1.0000
  O   O6        1.0  0.13469592119381232  0.14351942038072477  0.3358892958887733  1.0000
  O   O7        1.0  0.3653040784926571  0.6435194210084626  0.16411070378163242  1.0000
  O   O8        1.0  0.6346959212815111  0.6435194210084626  0.33588929593432415  1.0000
  O   O9        1.0  0.07356749758280923  0.7906748132530945  0.8621356704409933  1.0000
  O   O10       1.0  0.9264325021753121  0.7906748132530945  0.6378643292058842  1.0000
  O   O11       1.0  0.573567497670508  0.2906748126253567  0.8621356704865439  1.0000
  O   O12       1.0  0.4264325024808191  0.2906748126253567  0.637864329500939  1.0000
  O   O13       1.0  0.9264325021833354  0.20932518800238106  0.13786432924042372  1.0000
  O   O14       1.0  0.07356749759083271  0.20932518800238106  0.36213567047553274  1.0000
  O   O15       1.0  0.42643250248884257  0.7093251866573526  0.13786432953547847  1.0000
  O   O16       1.0  0.5735674976785315  0.7093251866573526  0.36213567052108353  1.0000
  O   O17       1.0  0.20354489045699675  0.7694149549339088  0.17361229010087775  1.0000
  O   O18       1.0  0.7964551093171715  0.7694149549339088  0.3263877096150788  1.0000
  O   O19       1.0  0.7035448905446955  0.26941495430617096  0.17361229014642857  1.0000
  O   O20       1.0  0.29645510962267857  0.26941495430617096  0.32638770991013355  1.0000
  O   O21       1.0  0.7964551093091482  0.23058504434880064  0.8263877095805394  1.0000
  O   O22       1.0  0.20354489044897328  0.23058504434880064  0.6736122900663383  1.0000
  O   O23       1.0  0.29645510961465504  0.7305850449765384  0.826387709875594  1.0000
  O   O24       1.0  0.7035448905366721  0.7305850449765384  0.6736122901118891  1.0000
  O   O25       1.0  0.24629630247987452  0.9451133427010142  0.10704370152383763  1.0000
  O   O26       1.0  0.7537036972942938  0.9451133427010142  0.3929562981921189  1.0000
  O   O27       1.0  0.7462963025675733  0.4451133420732763  0.10704370156938836  1.0000
  O   O28       1.0  0.2537036972065949  0.4451133420732763  0.3929562981465682  1.0000
  O   O29       1.0  0.7537036972862703  0.05488665658169525  0.8929562981575793  1.0000
  O   O30       1.0  0.24629630247185105  0.05488665658169525  0.6070437014892981  1.0000
  O   O31       1.0  0.25370369719857144  0.554886657209433  0.8929562981120286  1.0000
  O   O32       1.0  0.7462963025595498  0.554886657209433  0.6070437015348489  1.0000
  O   O33       1.0  0.04840836890189866  0.24940555357660874  0.04348285784456414  1.0000
  O   O34       1.0  0.9515916308722696  0.24940555357660874  0.4565171418713925  1.0000
  O   O35       1.0  0.5484083689895974  0.7494055542043466  0.04348285789011497  1.0000
  O   O36       1.0  0.4515916307845708  0.7494055542043466  0.4565171418258416  1.0000
  O   O37       1.0  0.9515916308642461  0.7505944457061006  0.9565171418368529  1.0000
  O   O38       1.0  0.048408368893875175  0.7505944457061006  0.5434828578100246  1.0000
  O   O39       1.0  0.45159163077654735  0.250594447051129  0.9565171417913022  1.0000
  O   O40       1.0  0.548408368981574  0.250594447051129  0.5434828578555755  1.0000
  S   S1        1.0  0.23181609638854236  0.7260294661712552  0.13638056429346068  1.0000
  S   S2        1.0  0.7681839037788318  0.7260294661712552  0.3636194357631014  1.0000
  S   S3        1.0  0.7318160964762412  0.2260294655435174  0.13638056433901152  1.0000
  S   S4        1.0  0.26818390369113293  0.2260294655435174  0.36361943571755057  1.0000
  S   S5        1.0  0.7681839037708083  0.2739705331114542  0.8636194357285618  1.0000
  S   S6        1.0  0.23181609638051887  0.2739705331114542  0.6363805642589212  1.0000
  S   S7        1.0  0.26818390368310946  0.7739705337391919  0.863619435683011  1.0000
  S   S8        1.0  0.7318160964682175  0.7739705337391919  0.636380564304472  1.0000
