data_image0
_chemical_formula_structural       H34C48N10O4S2
_chemical_formula_sum              "H34 C48 N10 O4 S2"
_cell_length_a       7.072604764207236
_cell_length_b       11.776103320525648
_cell_length_c       13.26983637748835
_cell_angle_alpha    65.2906764876418
_cell_angle_beta     76.41766024472182
_cell_angle_gamma    86.35615550590211

_space_group_name_H-M_alt    "P 1"
_space_group_IT_number       1

loop_
  _space_group_symop_operation_xyz
  'x, y, z'

loop_
  _atom_site_type_symbol
  _atom_site_label
  _atom_site_symmetry_multiplicity
  _atom_site_fract_x
  _atom_site_fract_y
  _atom_site_fract_z
  _atom_site_occupancy
  H   H1        1.0  0.444175295365957  0.4533495307067033  0.6358808273974994  1.0000
  H   H2        1.0  0.5558247035343035  0.5466504688268272  0.3641191729944796  1.0000
  H   H3        1.0  0.5634575888947208  0.18617667283647935  0.018741636745264287  1.0000
  H   H4        1.0  0.436542411521908  0.813823327629243  0.9812583630993046  1.0000
  H   H5        1.0  0.14845058469448885  0.6211555614004634  0.19271239764661013  1.0000
  H   H6        1.0  0.8515494157221398  0.37884443906525894  0.8072876021979588  1.0000
  H   H7        1.0  0.6841176221286999  0.12445454681649924  0.8598107368667837  1.0000
  H   H8        1.0  0.31588237683380854  0.8755454536525037  0.1401892631727314  1.0000
  H   H9        1.0  0.19142027431343742  0.5354190071398182  0.04688108443977113  1.0000
  H   H10       1.0  0.8085797245868231  0.4645809923937123  0.9531189159522078  1.0000
  H   H11       1.0  0.3949104904034544  0.38593400134001543  0.9864188797152117  1.0000
  H   H12       1.0  0.6050895100131743  0.6140659991257069  0.013581120129357204  1.0000
  H   H13       1.0  0.33388653024193515  0.5192856889508056  0.7953814058511088  1.0000
  H   H14       1.0  0.6661134686583252  0.48071431058272485  0.20461859454087022  1.0000
  H   H15       1.0  0.8516977134402254  0.2040389593061605  0.2971319297449321  1.0000
  H   H16       1.0  0.1483022869141553  0.7959610402240892  0.7028680704521008  1.0000
  H   H17       1.0  0.9594581537454687  0.4991579480487901  0.3900839595935979  1.0000
  H   H18       1.0  0.04054184660891215  0.5008420514814598  0.609916040603435  1.0000
  H   H19       1.0  0.03991887742552855  0.3258800713360573  0.1001693903952711  1.0000
  H   H20       1.0  0.9600811229911  0.674119929129665  0.8998306094492978  1.0000
  H   H21       1.0  0.8968896077278277  0.751685533486898  0.2955800298537474  1.0000
  H   H22       1.0  0.1031103911724327  0.24831446604663251  0.7044199705382317  1.0000
  H   H23       1.0  0.7264744815296429  0.5787756609645079  0.5003924752206902  1.0000
  H   H24       1.0  0.2735255174328655  0.4212243395044952  0.4996075248188249  1.0000
  H   H25       1.0  0.61750305048548  0.6768459032130999  0.6481178793732614  1.0000
  H   H26       1.0  0.3824969498689008  0.32315409631714986  0.3518821208237714  1.0000
  H   H27       1.0  0.8857120943778977  0.9066037947948088  0.8938787671509185  1.0000
  H   H28       1.0  0.11428790603873111  0.09339620567091368  0.10612123269365024  1.0000
  H   H29       1.0  0.127284295546974  0.897889725768153  0.9177819273473338  1.0000
  H   H30       1.0  0.8727157048696548  0.1021102746975693  0.0822180724972352  1.0000
  H   H31       1.0  0.2568944524416739  0.08379750655461929  0.9222596623148682  1.0000
  H   H32       1.0  0.743105547912707  0.9162024929756304  0.0777403378821646  1.0000
  H   H33       1.0  0.10634453724294148  0.21652612295349086  0.8967378519020682  1.0000
  H   H34       1.0  0.8936554616924427  0.7834738775184926  0.10326214738628417  1.0000
  C   C1        1.0  0.4715892604819489  0.3959059203890667  0.7197337648282037  1.0000
  C   C2        1.0  0.528410739872432  0.6040940791411831  0.280266235368829  1.0000
  C   C3        1.0  0.5694789429343773  0.28388421844449296  0.7376315496841507  1.0000
  C   C4        1.0  0.4305210574200036  0.7161157810857567  0.2623684505128822  1.0000
  C   C5        1.0  0.5305535044739526  0.8010299211019851  0.7570658640465018  1.0000
  C   C6        1.0  0.46944649588042836  0.1989700784282647  0.24293413615053097  1.0000
  C   C7        1.0  0.5372777216672373  0.24521798948833956  0.9350251057272392  1.0000
  C   C8        1.0  0.4627222787493913  0.7547820109773827  0.06497489411732968  1.0000
  C   C9        1.0  0.08184548625611  0.5305598530912518  0.21485577092342287  1.0000
  C   C10       1.0  0.9181545126441505  0.4694401464422787  0.7851442294685562  1.0000
  C   C11       1.0  0.7016893559661617  0.9485230278947859  0.5611551320696205  1.0000
  C   C12       1.0  0.2983106444504671  0.05147697257093633  0.43884486777494836  1.0000
  C   C13       1.0  0.6063885701767567  0.9207705669895856  0.6756928179031055  1.0000
  C   C14       1.0  0.3936114301776241  0.07922943254066417  0.32430718229392724  1.0000
  C   C15       1.0  0.8934963312251484  0.3453925378215806  0.3544860672045471  1.0000
  C   C16       1.0  0.10650366773736011  0.6546074626474224  0.6455139328349679  1.0000
  C   C17       1.0  0.7377374282878179  0.15352113528641184  0.5257416499690906  1.0000
  C   C18       1.0  0.26226257061244274  0.8464788642471186  0.4742583504228885  1.0000
  C   C19       1.0  0.646425557131831  0.25347102796118715  0.6400859871166431  1.0000
  C   C20       1.0  0.35357444322254994  0.7465289715690626  0.3599140130803897  1.0000
  C   C21       1.0  0.6025702245125453  0.20877895476893857  0.8458211301557911  1.0000
  C   C22       1.0  0.39742977590408335  0.7912210456967836  0.15417886968877784  1.0000
  C   C23       1.0  0.5701144303240475  0.015784913739776345  0.7194288618408329  1.0000
  C   C24       1.0  0.42988557009258116  0.984215086725946  0.28057113800373595  1.0000
  C   C25       1.0  0.10647502527338287  0.4819617731710734  0.13308987412584816  1.0000
  C   C26       1.0  0.893524975080998  0.5180382263591763  0.8669101260711846  1.0000
  C   C27       1.0  0.4408080569080728  0.35680417302586886  0.9168202355114384  1.0000
  C   C28       1.0  0.5591919435085559  0.6431958274398536  0.08317976433313047  1.0000
  C   C29       1.0  0.8375314334346831  0.7645865774480475  0.3730271601414019  1.0000
  C   C30       1.0  0.1624685655278254  0.2354134230209557  0.6269728398981131  1.0000
  C   C31       1.0  0.4081432060636026  0.43210976443177196  0.8091190211269248  1.0000
  C   C32       1.0  0.5918567943530262  0.5678902360339505  0.19088097871764406  1.0000
  C   C33       1.0  0.9167073425456412  0.2951483571513299  0.27378692241009855  1.0000
  C   C34       1.0  0.0832926578087397  0.7048516423789198  0.7262130777869343  1.0000
  C   C35       1.0  0.7347595225391845  0.8579864506498049  0.5121542398333458  1.0000
  C   C36       1.0  0.2652404778151964  0.14201354888044485  0.48784576036368693  1.0000
  C   C37       1.0  0.9761101917729125  0.4629353642684117  0.3255295442963658  1.0000
  C   C38       1.0  0.023889808581468254  0.537064635261838  0.6744704559006671  1.0000
  C   C39       1.0  0.023541742889118616  0.36460887659216434  0.163181744022738  1.0000
  C   C40       1.0  0.9764582575275101  0.635391123873558  0.8368182558218309  1.0000
  C   C41       1.0  0.7478124506069376  0.677408078647034  0.4796834264803207  1.0000
  C   C42       1.0  0.252187548293323  0.32259192088649635  0.5203165739116584  1.0000
  C   C43       1.0  0.6886296636700933  0.7304250168475485  0.5593676910618122  1.0000
  C   C44       1.0  0.31137033668428754  0.26957498268270136  0.4406323091352206  1.0000
  C   C45       1.0  0.981001491898869  0.9341647910241335  0.9352088328912674  1.0000
  C   C46       1.0  0.018998508455511827  0.065835208506116  0.06479116730576531  1.0000
  C   C47       1.0  0.10635985833378143  0.11384797832564938  0.9378453122698892  1.0000
  C   C48       1.0  0.8936401420205995  0.8861520212046003  0.06215468792714359  1.0000
  N   N1        1.0  0.7859560728422472  0.27836573642395984  0.4681372754535737  1.0000
  N   N2        1.0  0.2140439275121337  0.7216342631062899  0.5318627247434593  1.0000
  N   N3        1.0  0.6489706205020603  0.13657389520162233  0.6362529754170194  1.0000
  N   N4        1.0  0.3510293799145684  0.8634261052641  0.36374702442754936  1.0000
  N   N5        1.0  0.7666344905727058  0.06676177438185145  0.48667694491029834  1.0000
  N   N6        1.0  0.2333655083898026  0.9332382260871516  0.5133230551292168  1.0000
  N   N7        1.0  0.7293622698024462  0.33870373117908914  0.5387653581101264  1.0000
  N   N8        1.0  0.27063773061418256  0.6612962692866332  0.4612346417344425  1.0000
  N   N9        1.0  0.46394932447420384  0.7041163862703367  0.82781063639328  1.0000
  N   N10       1.0  0.5360506758801771  0.295883613259913  0.17218936380375285  1.0000
  O   O1        1.0  0.48166138150305676  0.9996367496977077  0.8163054307846557  1.0000
  O   O2        1.0  0.5183386189135719  0.00036325076801459557  0.18369456905991327  1.0000
  O   O3        1.0  0.9935014269579666  0.06851548919728842  0.8839404237287833  1.0000
  O   O4        1.0  0.0064985734315377965  0.9314845112714146  0.11605957536462283  1.0000
  S   S1        1.0  0.8504638623146965  0.9108858620818849  0.3684572546606939  1.0000
  S   S2        1.0  0.14953613810193223  0.08911413838383753  0.631542745183875  1.0000
