data_image0
_chemical_formula_structural       H12C28O10Cl12
_chemical_formula_sum              "H12 C28 O10 Cl12"
_cell_length_a       6.8523355942172275
_cell_length_b       9.463429494653555
_cell_length_c       13.188419212866359
_cell_angle_alpha    94.57005618036837
_cell_angle_beta     93.94490353864728
_cell_angle_gamma    107.30434565800527

_space_group_name_H-M_alt    "P 1"
_space_group_IT_number       1

loop_
  _space_group_symop_operation_xyz
  'x, y, z'

loop_
  _atom_site_type_symbol
  _atom_site_label
  _atom_site_symmetry_multiplicity
  _atom_site_fract_x
  _atom_site_fract_y
  _atom_site_fract_z
  _atom_site_occupancy
  H   H1        1.0  0.07022863719250186  0.3767806149814839  0.01559113704304754  1.0000
  H   H2        1.0  0.9297713630638971  0.6232193853207088  0.9844088630136721  1.0000
  H   H3        1.0  0.2842313357095428  0.7053306079490479  0.07604919288605044  1.0000
  H   H4        1.0  0.7157686645468562  0.29466939235314477  0.9239508071706694  1.0000
  H   H5        1.0  0.3597945050633916  0.0327884252774723  0.1202555034446482  1.0000
  H   H6        1.0  0.6402054951930073  0.9672115750247204  0.8797444966120714  1.0000
  H   H7        1.0  0.14735884258441254  0.914229053917584  0.03584455236139741  1.0000
  H   H8        1.0  0.8526411576719864  0.08577094638460869  0.9641554476953222  1.0000
  H   H9        1.0  0.6975313344418952  0.8315325542833988  0.02354654430852426  1.0000
  H   H10       1.0  0.3024686653633869  0.16846744491182328  0.9764534557470135  1.0000
  H   H11       1.0  0.6898578537701427  0.9816911639074765  0.11497776108654388  1.0000
  H   H12       1.0  0.3101421464862562  0.01830883639471632  0.885022238970176  1.0000
  C   C1        1.0  0.140077643406604  0.3882812614885355  0.1591540050710168  1.0000
  C   C2        1.0  0.859922356849795  0.6117187388136572  0.8408459949857029  1.0000
  C   C3        1.0  0.13856763258691576  0.3144587811702477  0.24727397678035196  1.0000
  C   C4        1.0  0.8614323672183664  0.6855412180249743  0.7527260232751858  1.0000
  C   C5        1.0  0.18791625916992058  0.3970701919026556  0.34341548895485247  1.0000
  C   C6        1.0  0.8120837396260167  0.6029298083967267  0.6565845111022011  1.0000
  C   C7        1.0  0.2276374394098596  0.4039818106953433  0.5217326581562425  1.0000
  C   C8        1.0  0.7723625608465394  0.5960181896068495  0.47826734190047715  1.0000
  C   C9        1.0  0.22216027472553232  0.32881455801368514  0.6091755138834445  1.0000
  C   C10       1.0  0.7778397255308667  0.6711854422885076  0.39082448617327514  1.0000
  C   C11       1.0  0.26582037431379635  0.4107959429912584  0.7062562863131898  1.0000
  C   C12       1.0  0.7341796240310238  0.5892040562011531  0.29374371374268143  1.0000
  C   C13       1.0  0.3145353802546711  0.5665827960234183  0.7151982241727871  1.0000
  C   C14       1.0  0.6854646200017279  0.43341720427877434  0.2848017758839326  1.0000
  C   C15       1.0  0.32062345184391017  0.6411752194287157  0.6266601288652223  1.0000
  C   C16       1.0  0.6793765479613719  0.3588247797665062  0.3733398711903155  1.0000
  C   C17       1.0  0.27712295364753226  0.5591580958822336  0.5303405223443453  1.0000
  C   C18       1.0  0.7228770466088668  0.44084190441995896  0.46965947771237443  1.0000
  C   C19       1.0  0.23735363553563354  0.5514186116982879  0.35205295347835536  1.0000
  C   C20       1.0  0.7626463647207655  0.44858138860390484  0.6479470465783642  1.0000
  C   C21       1.0  0.23775396085895464  0.6257921876606922  0.26464305884795736  1.0000
  C   C22       1.0  0.7622460389463275  0.3742078115345297  0.7353569412075804  1.0000
  C   C23       1.0  0.1899058845264055  0.5443926243089171  0.16773176997364309  1.0000
  C   C24       1.0  0.8100941157299935  0.45560737599327567  0.8322682300830766  1.0000
  C   C25       1.0  0.3127492623521316  0.9717378003427198  0.043590782123690976  1.0000
  C   C26       1.0  0.6872507379042674  0.02826219995947293  0.9564092179330287  1.0000
  C   C27       1.0  0.632622033359758  0.9232604286145485  0.03804029978739542  1.0000
  C   C28       1.0  0.36737796689664104  0.07673957168764416  0.9619597002693243  1.0000
  O   O1        1.0  0.18400705942886542  0.3198810287859089  0.4285437978567955  1.0000
  O   O2        1.0  0.8159929408275336  0.6801189715162838  0.5714562021999241  1.0000
  O   O3        1.0  0.2854761192059428  0.6364758525387172  0.4461261143763157  1.0000
  O   O4        1.0  0.7145238810504562  0.36352414776347547  0.553873885680404  1.0000
  O   O5        1.0  0.09268530780190626  0.3094615067986623  0.06541567417202829  1.0000
  O   O6        1.0  0.9073146920033757  0.6905384923965595  0.9345843258835094  1.0000
  O   O7        1.0  0.1796247676004918  0.605002134961239  0.07821511108912804  1.0000
  O   O8        1.0  0.8203752326559072  0.3949978653409537  0.9217848889675916  1.0000
  O   O9        1.0  0.4125358480728542  0.857615484574013  0.0320379155900711  1.0000
  O   O10       1.0  0.5874641521835449  0.1423845157281797  0.9679620844666486  1.0000
  Cl  Cl1       1.0  0.07499926403298438  0.12404512169249354  0.23831121872019065  1.0000
  Cl  Cl2       1.0  0.9250007362234147  0.8759548786096991  0.7616887813365291  1.0000
  Cl  Cl3       1.0  0.1629410705822706  0.13950202862729721  0.5947578501114933  1.0000
  Cl  Cl4       1.0  0.837058929524921  0.8604979715595913  0.4052421491809498  1.0000
  Cl  Cl5       1.0  0.2594971076424346  0.31957610782590445  0.8135646504178261  1.0000
  Cl  Cl6       1.0  0.7405028926139644  0.6804238924762882  0.18643534963889366  1.0000
  Cl  Cl7       1.0  0.3632136904620463  0.6661991468291593  0.8330092223364419  1.0000
  Cl  Cl8       1.0  0.6367863097943527  0.3338008534730334  0.16699077772027776  1.0000
  Cl  Cl9       1.0  0.3794779040369457  0.8306762742974162  0.63298673130785  1.0000
  Cl  Cl10      1.0  0.6205220962194533  0.16932372600477658  0.3670132687488697  1.0000
  Cl  Cl11      1.0  0.29493976140835587  0.815942728590325  0.2769139043160475  1.0000
  Cl  Cl12      1.0  0.7050602388480431  0.1840572717118677  0.7230860957406722  1.0000
