data_image0
_chemical_formula_structural       H72C72N8F16I8
_chemical_formula_sum              "H72 C72 N8 F16 I8"
_cell_length_a       6.603492040456725
_cell_length_b       29.895023091651606
_cell_length_c       10.011348244640985
_cell_angle_alpha    90.0
_cell_angle_beta     94.02847161160466
_cell_angle_gamma    90.0

_space_group_name_H-M_alt    "P 1"
_space_group_IT_number       1

loop_
  _space_group_symop_operation_xyz
  'x, y, z'

loop_
  _atom_site_type_symbol
  _atom_site_label
  _atom_site_symmetry_multiplicity
  _atom_site_fract_x
  _atom_site_fract_y
  _atom_site_fract_z
  _atom_site_occupancy
  H   H1        1.0  0.5048591478561906  0.7485900442823049  0.4482542460550185  1.0000
  H   H2        1.0  0.9951408520920034  0.24859004447718017  0.05174575319911233  1.0000
  H   H3        1.0  0.4951408514816095  0.2514099556624484  0.5517457532254001  1.0000
  H   H4        1.0  0.004859148760578585  0.7514099558020769  0.9482542460854817  1.0000
  H   H5        1.0  0.4037613168243776  0.793308451286089  0.6454110348828096  1.0000
  H   H6        1.0  0.09623868351814505  0.29330845148096424  0.8545889654294041  1.0000
  H   H7        1.0  0.596238682613757  0.2066915486586643  0.3545889653989408  1.0000
  H   H8        1.0  0.9037613174347715  0.7066915487982929  0.14541103485652182  1.0000
  H   H9        1.0  0.07379436531339767  0.7785001502975667  0.7416131187033377  1.0000
  H   H10       1.0  0.4262056350291249  0.2785001501579381  0.7583868816088759  1.0000
  H   H11       1.0  0.9262056341247369  0.22149984964718653  0.2583868815784127  1.0000
  H   H12       1.0  0.5737943659237915  0.721499849786815  0.2416131186770499  1.0000
  H   H13       1.0  0.526520429134881  0.3494468888006085  0.3304898464322733  1.0000
  H   H14       1.0  0.9734795709136475  0.8494468886057333  0.16951015382318932  1.0000
  H   H15       1.0  0.4734795703032536  0.6505531111441448  0.6695101538494771  1.0000
  H   H16       1.0  0.02652043003926897  0.15055311133902008  0.8304898464627365  1.0000
  H   H17       1.0  0.5062613968870779  0.29892632337506225  0.13036882954271783  1.0000
  H   H18       1.0  0.993738603061116  0.798926323180187  0.36963116971141297  1.0000
  H   H19       1.0  0.49373860245072215  0.701073676569691  0.8696311697377009  1.0000
  H   H20       1.0  0.006261396276684207  0.2010736767645663  0.6303688295690056  1.0000
  H   H21       1.0  0.7516975191821512  0.3090293873223299  0.9526740561720802  1.0000
  H   H22       1.0  0.748302480632107  0.8090293874619585  0.5473259432513012  1.0000
  H   H23       1.0  0.24830248015564885  0.6909706126224233  0.04732594310833839  1.0000
  H   H24       1.0  0.25169752022047487  0.1909706124827948  0.45267405603329264  1.0000
  H   H25       1.0  0.3886005906269376  0.6058336394146402  0.4193158590451663  1.0000
  H   H26       1.0  0.11139940974918612  0.10583363927501167  0.08068414009646475  1.0000
  H   H27       1.0  0.6113994102256443  0.39416636086461687  0.5806841402394276  1.0000
  H   H28       1.0  0.888600589588614  0.8941663606697416  0.919315859183954  1.0000
  H   H29       1.0  0.5613299579526833  0.567112279459469  0.4989406145802154  1.0000
  H   H30       1.0  0.938670040480729  0.06711227931984037  0.0010593846697400475  1.0000
  H   H31       1.0  0.43867004138511684  0.43288772048528434  0.5010593847002033  1.0000
  H   H32       1.0  0.06132995885707127  0.9328877206249129  0.9989406146106786  1.0000
  H   H33       1.0  0.33942240935581  0.5078510848931153  0.42768307495381885  1.0000
  H   H34       1.0  0.16057758960586643  0.007851084753486743  0.07231692518496873  1.0000
  H   H35       1.0  0.6605775900823248  0.4921489153861418  0.5723169253279315  1.0000
  H   H36       1.0  0.8394224098322681  0.9921489151912665  0.9276830750967816  1.0000
  H   H37       1.0  0.17106612881675054  0.5475398824686334  0.3480387821276316  1.0000
  H   H38       1.0  0.32893387165970767  0.04753988232900485  0.15196121801533127  1.0000
  H   H39       1.0  0.8289338721361659  0.45246011747611986  0.6519612181582942  1.0000
  H   H40       1.0  0.6710661292932087  0.9524601176157483  0.8480387822705945  1.0000
  H   H41       1.0  0.6331529455251153  0.49096035701336294  0.13897208764400554  1.0000
  H   H42       1.0  0.8668470545234134  0.9909603568184877  0.36102791261145706  1.0000
  H   H43       1.0  0.36684705391301947  0.5090396432658941  0.8610279126377449  1.0000
  H   H44       1.0  0.13315294642950315  0.009039643126265607  0.6389720876744687  1.0000
  H   H45       1.0  0.6078538912836368  0.4762562499567353  0.3080228531567747  1.0000
  H   H46       1.0  0.8921461087648916  0.9762562497618601  0.19197714709868793  1.0000
  H   H47       1.0  0.3921461080541634  0.5237437499880179  0.6919771461236439  1.0000
  H   H48       1.0  0.10785389218802467  0.02374375018289323  0.8080228531872378  1.0000
  H   H49       1.0  0.828776148227127  0.5354287929775834  0.3752087487376937  1.0000
  H   H50       1.0  0.6712238518214013  0.03542879283795481  0.12479125151776893  1.0000
  H   H51       1.0  0.17122385121100758  0.4645712069671699  0.6247912515440567  1.0000
  H   H52       1.0  0.328776149131515  0.9645712071067984  0.8752087487681568  1.0000
  H   H53       1.0  0.8464882096524085  0.5507201462773792  0.20488934511446324  1.0000
  H   H54       1.0  0.6535117902957855  0.0507201464722545  0.2951106541396676  1.0000
  H   H55       1.0  0.15351178968539175  0.44927985366737405  0.7951106541659554  1.0000
  H   H56       1.0  0.34648821055679635  0.9492798534724988  0.7048893451449264  1.0000
  H   H57       1.0  0.615847627689175  0.6034892020216626  0.10092583371066313  1.0000
  H   H58       1.0  0.8841523723593535  0.1034892022165378  0.3990741665447995  1.0000
  H   H59       1.0  0.38415237174895966  0.39651079792309074  0.8990741665710873  1.0000
  H   H60       1.0  0.11584762859356297  0.8965107980627193  0.6009258337411262  1.0000
  H   H61       1.0  0.4200215261128972  0.6266662735989542  0.19193850232587137  1.0000
  H   H62       1.0  0.07997847436356098  0.12666627345932577  0.3080614978170915  1.0000
  H   H63       1.0  0.5799784733252374  0.3733337266803028  0.8080614979558791  1.0000
  H   H64       1.0  0.920021526489021  0.8733337264854275  0.6919385014675024  1.0000
  H   H65       1.0  0.20297873966641752  0.5672678287622992  0.11949881769762673  1.0000
  H   H66       1.0  0.2970212608100407  0.06726782862267058  0.3805011824453362  1.0000
  H   H67       1.0  0.7970212612864989  0.432732171516958  0.880501182588299  1.0000
  H   H68       1.0  0.7029787386280939  0.9327321713220826  0.6194988178364143  1.0000
  H   H69       1.0  0.4009640147782849  0.5441086658515556  0.030556152424285773  1.0000
  H   H70       1.0  0.0990359856981733  0.04410866604643088  0.46944384771867714  1.0000
  H   H71       1.0  0.5990359846598498  0.45589133409319765  0.9694438478574645  1.0000
  H   H72       1.0  0.9009640152547431  0.9558913342328261  0.5305561525672486  1.0000
  C   C1        1.0  0.04353267697826205  0.7000849865824185  0.49143404777411775  1.0000
  C   C2        1.0  0.4564673234981962  0.20008498644278983  0.008565952368845107  1.0000
  C   C3        1.0  0.9564673239746543  0.29991501336233484  0.5085659525118079  1.0000
  C   C4        1.0  0.5435326759399385  0.7999150135019634  0.9914340479129052  1.0000
  C   C5        1.0  0.22910513934396784  0.7100226250010006  0.4399167800352895  1.0000
  C   C6        1.0  0.27089485961770854  0.21002262486137208  0.06008322010349802  1.0000
  C   C7        1.0  0.7708948600941667  0.2899773752782565  0.560083220246461  1.0000
  C   C8        1.0  0.729105139820426  0.7899773750833812  0.9399167801782525  1.0000
  C   C9        1.0  0.3615180563238916  0.7426643659693327  0.49242116473799935  1.0000
  C   C10       1.0  0.13848194415256665  0.24266436582970421  0.007578835404963517  1.0000
  C   C11       1.0  0.6384819446290249  0.2573356339754205  0.5075788355479265  1.0000
  C   C12       1.0  0.861518055285568  0.757335634115049  0.992421164876787  1.0000
  C   C13       1.0  0.304558848345325  0.7672365239418462  0.6020991873510048  1.0000
  C   C14       1.0  0.1954411504824158  0.26723652380221763  0.8979008129570334  1.0000
  C   C15       1.0  0.6954411510928097  0.23276347633741087  0.3979008129307457  1.0000
  C   C16       1.0  0.8045588489557187  0.7327634761425356  0.10209918732471691  1.0000
  C   C17       1.0  0.11976868371818453  0.7590316997057848  0.6571233819056682  1.0000
  C   C18       1.0  0.3802313166243381  0.2590316995661562  0.8428766184065455  1.0000
  C   C19       1.0  0.8802313157199501  0.24096830023896848  0.34287661837608224  1.0000
  C   C20       1.0  0.6197686843285782  0.7409683003785971  0.15712338187938038  1.0000
  C   C21       1.0  0.9943081110166584  0.7255771772946851  0.6013295891469109  1.0000
  C   C22       1.0  0.5056918887976001  0.22557717748956038  0.8986704102764703  1.0000
  C   C23       1.0  0.005691888321141807  0.2744228226500682  0.39867041013350757  1.0000
  C   C24       1.0  0.4943081105402001  0.7744228227896968  0.10132958900394815  1.0000
  C   C25       1.0  0.9191099477719544  0.39315237101396294  0.1648592893343836  1.0000
  C   C26       1.0  0.580890052276574  0.8931523708190876  0.33514071092107905  1.0000
  C   C27       1.0  0.08089005318096197  0.6068476289307904  0.8351407109515421  1.0000
  C   C28       1.0  0.4191099471615606  0.10684762912566562  0.6648592893606714  1.0000
  C   C29       1.0  0.7801045445902902  0.3860892016913419  0.26152452140038346  1.0000
  C   C30       1.0  0.7198954554582382  0.8860892018309704  0.2384754788550792  1.0000
  C   C31       1.0  0.2198954563626262  0.6139107982534113  0.7384754788855423  1.0000
  C   C32       1.0  0.28010454397989637  0.11391079844828662  0.7615245214266713  1.0000
  C   C33       1.0  0.631510015645133  0.3530653379206631  0.2520397198353888  1.0000
  C   C34       1.0  0.8684899844033953  0.8530653380602917  0.24796028042007384  1.0000
  C   C35       1.0  0.3684899837930016  0.6469346620240901  0.7479602804463616  1.0000
  C   C36       1.0  0.13151001654952102  0.1469346618844616  0.7520397198658519  1.0000
  C   C37       1.0  0.6216397190790308  0.3249993796697626  0.14031535593027858  1.0000
  C   C38       1.0  0.878360280869163  0.8249993798093912  0.35968464332385225  1.0000
  C   C39       1.0  0.3783602817735511  0.6750006202749905  0.8596846433543153  1.0000
  C   C40       1.0  0.12163971846863705  0.17500062013536208  0.6403153559565663  1.0000
  C   C41       1.0  0.7584747428896327  0.33023825871393825  0.041234530370113945  1.0000
  C   C42       1.0  0.7415252571588957  0.8302382585190629  0.45876546988534866  1.0000
  C   C43       1.0  0.241525256548502  0.669761741230815  0.9587654699116365  1.0000
  C   C44       1.0  0.25847474227923883  0.16976174142569028  0.5412345303964018  1.0000
  C   C45       1.0  0.9032552643437414  0.36401488022395745  0.05585575251331532  1.0000
  C   C46       1.0  0.596744735704787  0.8640148800290821  0.4441442477421473  1.0000
  C   C47       1.0  0.09674473660917501  0.6359851200552997  0.9441442477726105  1.0000
  C   C48       1.0  0.40325526373334764  0.1359851199156711  0.5558557525396032  1.0000
  C   C49       1.0  0.4737136129309535  0.5749589708395303  0.40439495435618383  1.0000
  C   C50       1.0  0.02628638754550472  0.07495897069990179  0.09560504578677902  1.0000
  C   C51       1.0  0.5262863880219629  0.42504102943972677  0.5956050459297418  1.0000
  C   C52       1.0  0.9737136118926297  0.9250410292448514  0.9043949544949713  1.0000
  C   C53       1.0  0.32950657963102553  0.5362048783456685  0.3575587695497764  1.0000
  C   C54       1.0  0.17049342084543267  0.036204878206040014  0.14244123059318647  1.0000
  C   C55       1.0  0.6704934213218909  0.4637951215990847  0.6424412307361493  1.0000
  C   C56       1.0  0.8295065784923674  0.9637951217387132  0.8575587686872321  1.0000
  C   C57       1.0  0.5958469422026866  0.5040775922400355  0.2366176696389022  1.0000
  C   C58       1.0  0.9041530578458418  0.004077592100406885  0.26338233061656036  1.0000
  C   C59       1.0  0.404153057235448  0.4959224077047178  0.7633823306428482  1.0000
  C   C60       1.0  0.0958469415922928  0.9959224078443464  0.73661766966519  1.0000
  C   C61       1.0  0.7397032233142163  0.5432146561724842  0.2812185002941675  1.0000
  C   C62       1.0  0.7602967766339775  0.04321465636735946  0.21878149895996332  1.0000
  C   C63       1.0  0.2602967775383656  0.4567853437722691  0.7187814989904265  1.0000
  C   C64       1.0  0.23970322270382252  0.9567853435773938  0.7812185003204553  1.0000
  C   C65       1.0  0.5057129166134452  0.5960573054374433  0.1749795858452252  1.0000
  C   C66       1.0  0.9942870834350832  0.09605730529781475  0.3250204144102374  1.0000
  C   C67       1.0  0.4942870828246894  0.40394269484181383  0.8250204144365253  1.0000
  C   C68       1.0  0.005712916003051395  0.9039426946469384  0.674979585871513  1.0000
  C   C69       1.0  0.3625408327659604  0.5568164988187791  0.12835059017864556  1.0000
  C   C70       1.0  0.13745916771049782  0.0568164986791506  0.37164940996431733  1.0000
  C   C71       1.0  0.6374591666721742  0.4431835011259741  0.8716494101031049  1.0000
  C   C72       1.0  0.8625408332424187  0.9431835012656026  0.6283505903216084  1.0000
  N   N1        1.0  0.618367308802715  0.5836583700406177  0.30193687646249023  1.0000
  N   N2        1.0  0.8816326912458134  0.08365837023549293  0.19806312379297236  1.0000
  N   N3        1.0  0.38163269063541966  0.41634162990413565  0.6980631238192602  1.0000
  N   N4        1.0  0.11836730960676847  0.9163416300437641  0.8019368754916216  1.0000
  N   N5        1.0  0.3835200244686629  0.5197521695288169  0.22563810212879623  1.0000
  N   N6        1.0  0.11647997600779529  0.0197521697236922  0.2743618980141666  1.0000
  N   N7        1.0  0.6164799764842536  0.4802478304159363  0.7743618981571295  1.0000
  N   N8        1.0  0.8835200233300049  0.9802478302210611  0.725638101266252  1.0000
  F   F1        1.0  0.28418869923429496  0.6860112125394909  0.3312295072005405  1.0000
  F   F2        1.0  0.21581130114182875  0.18601121239986246  0.16877049194109056  1.0000
  F   F3        1.0  0.7158113001035051  0.3139887874052622  0.668770492079878  1.0000
  F   F4        1.0  0.7841886997107532  0.8139887875448908  0.8312295073435033  1.0000
  F   F5        1.0  0.8139426810056372  0.7174243122089892  0.6565197661848351  1.0000
  F   F6        1.0  0.6860573189089557  0.21742431240386445  0.8434802342398783  1.0000
  F   F7        1.0  0.18605731843249743  0.2825756877357641  0.3434802340969153  1.0000
  F   F8        1.0  0.3139426820439608  0.7825756878753927  0.15651976604604756  1.0000
  F   F9        1.0  0.7902474182350661  0.4135733911994427  0.37109416649294896  1.0000
  F   F10       1.0  0.7097525818134625  0.9135733910045674  0.1289058337625137  1.0000
  F   F11       1.0  0.20975258271785038  0.5864266087453106  0.6289058337929768  1.0000
  F   F12       1.0  0.2902474176246722  0.08642660894018589  0.8710941665192368  1.0000
  F   F13       1.0  0.03366516075135625  0.36962057952334343  0.9566259243389974  1.0000
  F   F14       1.0  0.46633483949083193  0.8696205793284681  0.5433740749718844  1.0000
  F   F15       1.0  0.9663348401012257  0.6303794204214098  0.043374074945596613  1.0000
  F   F16       1.0  0.5336651598469682  0.1303794206162851  0.4566259243085342  1.0000
  I   I1        1.0  0.8524942048708922  0.648552215549697  0.40587982976863585  1.0000
  I   I2        1.0  0.6475057951776363  0.1485522157445723  0.09412017048682672  1.0000
  I   I3        1.0  0.14750579608202435  0.35144778439505625  0.5941201705172899  1.0000
  I   I4        1.0  0.35249420426049827  0.851447784200181  0.9058798297949238  1.0000
  I   I5        1.0  0.12964990782464256  0.44729803148184294  0.18055106061533716  1.0000
  I   I6        1.0  0.3703500926518156  0.9472980316214714  0.3194489395276257  1.0000
  I   I7        1.0  0.8703500931282739  0.5527019684629104  0.8194489396705886  1.0000
  I   I8        1.0  0.6296499083011008  0.05270196865778562  0.6805510607583001  1.0000
