data_image0
_chemical_formula_structural       H38C56N2O8
_chemical_formula_sum              "H38 C56 N2 O8"
_cell_length_a       7.128326729246229
_cell_length_b       9.39199874604635
_cell_length_c       15.761707890028957
_cell_angle_alpha    85.551293809781
_cell_angle_beta     85.96472747416396
_cell_angle_gamma    68.33790160267002

_space_group_name_H-M_alt    "P 1"
_space_group_IT_number       1

loop_
  _space_group_symop_operation_xyz
  'x, y, z'

loop_
  _atom_site_type_symbol
  _atom_site_label
  _atom_site_symmetry_multiplicity
  _atom_site_fract_x
  _atom_site_fract_y
  _atom_site_fract_z
  _atom_site_occupancy
  H   H1        1.0  0.9948747794714004  0.6599687872794816  0.6326373287397751  1.0000
  H   H2        1.0  0.005125220389943547  0.34003121274985193  0.3673626713540407  1.0000
  H   H3        1.0  0.8218541430756033  0.8283264320970869  0.7537415003890872  1.0000
  H   H4        1.0  0.17814585678574063  0.17167356793224664  0.24625849970472866  1.0000
  H   H5        1.0  0.33958121694427873  0.2437247464938737  0.6867761087426946  1.0000
  H   H6        1.0  0.6604187829458189  0.7562752535328806  0.31322389071599926  1.0000
  H   H7        1.0  0.1909776657330699  0.3622937325234462  0.6037012120068612  1.0000
  H   H8        1.0  0.8090223341282741  0.6377062675058874  0.3962987880869547  1.0000
  H   H9        1.0  0.3715056467409819  0.41601770010026773  0.6506379022911877  1.0000
  H   H10       1.0  0.6284943545140544  0.5839822999540808  0.3493620977694944  1.0000
  H   H11       1.0  0.9394950790839958  0.861507112092393  0.3638263946968194  1.0000
  H   H12       1.0  0.06050492077734839  0.1384928879369405  0.6361736053969964  1.0000
  H   H13       1.0  0.8844851263761618  0.9788990460914548  0.21653269327821348  1.0000
  H   H14       1.0  0.11551487348518223  0.02110095393787859  0.7834673068156023  1.0000
  H   H15       1.0  0.22958981860006977  0.5158611743230748  0.5079301420522354  1.0000
  H   H16       1.0  0.7704101812612744  0.4841388257062586  0.49206985804158043  1.0000
  H   H17       1.0  0.6456417255081046  0.24118387430162955  0.1900663552279556  1.0000
  H   H18       1.0  0.35435827435323947  0.758816125727704  0.8099336448658603  1.0000
  H   H19       1.0  0.20539653462003274  0.6221134968577436  0.3629157639620759  1.0000
  H   H20       1.0  0.7946034652413113  0.3778865031715899  0.6370842361317398  1.0000
  H   H21       1.0  0.517888206185594  0.46690344961970215  0.18517340824966758  1.0000
  H   H22       1.0  0.4821117936757501  0.5330965504096314  0.8148265918441482  1.0000
  H   H23       1.0  0.3431435578979832  0.6284862279033028  0.23429433426847154  1.0000
  H   H24       1.0  0.6568564419633609  0.3715137721260308  0.7657056658253442  1.0000
  H   H25       1.0  0.397263205644375  0.2954399319791077  0.10950681668539491  1.0000
  H   H26       1.0  0.6027367942169689  0.7045600680502259  0.8904931834084209  1.0000
  H   H27       1.0  0.9754665571479911  0.6753621755828514  0.24325872834038437  1.0000
  H   H28       1.0  0.02453344271335292  0.3246378244464821  0.7567412717534315  1.0000
  H   H29       1.0  0.11761775369264188  0.2682632106779067  0.038548303084484134  1.0000
  H   H30       1.0  0.8823822461687021  0.7317367893514268  0.9614516970093316  1.0000
  H   H31       1.0  0.6928658318702474  0.6465599270172908  0.1726791841320173  1.0000
  H   H32       1.0  0.3071341679910966  0.3534400730120427  0.8273208159617985  1.0000
  H   H33       1.0  0.8549215325420688  0.32957371234729665  0.9564306373771805  1.0000
  H   H34       1.0  0.14507846731927526  0.6704262876820368  0.043569362716635265  1.0000
  H   H35       1.0  0.6077953044219967  0.33668319526977175  0.9903638573083329  1.0000
  H   H36       1.0  0.392204695468101  0.6633168047569828  0.009636142150361092  1.0000
  H   H37       1.0  0.8246557284763253  0.20877676108527912  0.04603843236016192  1.0000
  H   H38       1.0  0.17534427138501862  0.7912232389440546  0.9539615677336538  1.0000
  C   C1        1.0  0.90046305812344  0.7808463161278596  0.6222778147457486  1.0000
  C   C2        1.0  0.0995369431315967  0.2191536839264889  0.3777221853149334  1.0000
  C   C3        1.0  0.8074904226225379  0.8698430297952864  0.6870614114316629  1.0000
  C   C4        1.0  0.19250957723880627  0.13015697023404707  0.31293858866215285  1.0000
  C   C5        1.0  0.8915837841371914  0.8395823476308659  0.5326222661188905  1.0000
  C   C6        1.0  0.10841621572415278  0.16041765239846764  0.4673777339749252  1.0000
  C   C7        1.0  0.697284127871088  0.03388764981799088  0.6692912810980143  1.0000
  C   C8        1.0  0.302715871990256  0.9661123502113426  0.33070871899580156  1.0000
  C   C9        1.0  0.7575353768030105  0.9971069666450939  0.5113465899741825  1.0000
  C   C10       1.0  0.24246462305833363  0.0028930333842396264  0.48865341011963337  1.0000
  C   C11       1.0  0.6471618267845993  0.0890171371098509  0.5789458792480816  1.0000
  C   C12       1.0  0.35283817307674475  0.9109828629194827  0.4210541208457341  1.0000
  C   C13       1.0  0.49283611030198377  0.2320735583437417  0.5633498909341291  1.0000
  C   C14       1.0  0.5071638895593603  0.7679264416855919  0.4366501091596867  1.0000
  C   C15       1.0  0.34171304688637616  0.31752732258944943  0.6300860053037459  1.0000
  C   C16       1.0  0.658286952974968  0.682472677439884  0.36991399479006987  1.0000
  C   C17       1.0  0.7285818409737272  0.05849404813049078  0.4240789148366966  1.0000
  C   C18       1.0  0.27141815891637033  0.9415059518962638  0.5759210846219973  1.0000
  C   C19       1.0  0.8323444589039711  0.9771461969938204  0.3526894935269674  1.0000
  C   C20       1.0  0.16765554095737273  0.022853803035513032  0.6473105065668485  1.0000
  C   C21       1.0  0.4680051515090048  0.295251084445656  0.47791703516359363  1.0000
  C   C22       1.0  0.5319948483523393  0.7047489155836775  0.5220829649302221  1.0000
  C   C23       1.0  0.5867964332246356  0.21161289615408987  0.40893834478080393  1.0000
  C   C24       1.0  0.4132035680304009  0.7883871039002587  0.5910616552798782  1.0000
  C   C25       1.0  0.8005111319729917  0.04350255625363771  0.2704966589866974  1.0000
  C   C26       1.0  0.19948886791710585  0.9564974437731167  0.7295033404719965  1.0000
  C   C27       1.0  0.3252905375160476  0.4440095921435458  0.45935319583221373  1.0000
  C   C28       1.0  0.6747094623452964  0.5559904078857878  0.540646804261602  1.0000
  C   C29       1.0  0.5576546003625572  0.2784098612900577  0.32337272279215246  1.0000
  C   C30       1.0  0.44234539949878693  0.7215901387392758  0.6766272773016634  1.0000
  C   C31       1.0  0.6657044221237246  0.19299582490066758  0.2549975203648831  1.0000
  C   C32       1.0  0.33429557773761936  0.8070041751286661  0.7450024797289326  1.0000
  C   C33       1.0  0.30761917656905213  0.5055777067386074  0.37754678375523437  1.0000
  C   C34       1.0  0.6923808246859843  0.4944222933157411  0.6224532163054477  1.0000
  C   C35       1.0  0.3788798578913211  0.5064625102280336  0.2251630203213096  1.0000
  C   C36       1.0  0.6211201419700229  0.49353748980129986  0.7748369797725062  1.0000
  C   C37       1.0  0.2077172247827803  0.4846760452012063  0.1836541481539096  1.0000
  C   C38       1.0  0.7922827750785637  0.5153239548281272  0.8163458519399062  1.0000
  C   C39       1.0  0.2435014053697243  0.3715150929478979  0.12539759906441245  1.0000
  C   C40       1.0  0.7564985944916198  0.6284849070814356  0.8746024010294033  1.0000
  C   C41       1.0  0.007251201533089728  0.5827781549481527  0.20033983837184088  1.0000
  C   C42       1.0  0.9927487983282542  0.41722184508118093  0.7996601617219748  1.0000
  C   C43       1.0  0.08541869463095479  0.3541434586918588  0.08543984328279756  1.0000
  C   C44       1.0  0.9145813052591429  0.6458565413348956  0.9145601561758963  1.0000
  C   C45       1.0  0.8475099354102742  0.5672533920078778  0.16131771784036786  1.0000
  C   C46       1.0  0.15249006445107002  0.43274660802145576  0.8386822822534479  1.0000
  C   C47       1.0  0.8864146896612284  0.45166966804555553  0.1038269847800055  1.0000
  C   C48       1.0  0.11358531020011553  0.548330331983778  0.8961730153138103  1.0000
  C   C49       1.0  0.7568989043876009  0.3214062832056625  0.01204329177696362  1.0000
  C   C50       1.0  0.24310109547374315  0.6785937168236709  0.9879567083168521  1.0000
  C   C51       1.0  0.3163940099740482  0.9757507469971357  0.049371616874426066  1.0000
  C   C52       1.0  0.6836059898872959  0.024249253032197854  0.9506283832193897  1.0000
  C   C53       1.0  0.3377815186807119  0.016102087952970887  0.9555169474809123  1.0000
  C   C54       1.0  0.6622184811806321  0.9838979120763628  0.04448305261290346  1.0000
  C   C55       1.0  0.51400323132027  0.9638280575521947  0.08311933172075019  1.0000
  C   C56       1.0  0.48599676854107404  0.03617194247713874  0.9168806683730656  1.0000
  N   N1        1.0  0.41924819412693265  0.42788105451986413  0.3109616219015786  1.0000
  N   N2        1.0  0.5807518057344114  0.5721189455094694  0.6890383781922371  1.0000
  O   O1        1.0  0.9979535742812873  0.7471920207885363  0.4790983651241629  1.0000
  O   O2        1.0  0.00204642558005685  0.2528079792407972  0.5209016349696529  1.0000
  O   O3        1.0  0.6568185053810401  0.12425449229510518  0.7273652301254159  1.0000
  O   O4        1.0  0.34318149448030383  0.8757455077342283  0.27263476996839986  1.0000
  O   O5        1.0  0.7219493681931343  0.4438712795318962  0.0676043522883239  1.0000
  O   O6        1.0  0.27805063166820976  0.5561287204974373  0.9323956478054919  1.0000
  O   O7        1.0  0.17249427728561337  0.9581926461945496  0.08812092437721776  1.0000
  O   O8        1.0  0.8275057225757307  0.041807353834783956  0.911879075716598  1.0000
