data_image0
_chemical_formula_structural       H128C44N48O24S4
_chemical_formula_sum              "H128 C44 N48 O24 S4"
_cell_length_a       12.554556841710774
_cell_length_b       10.16416907066136
_cell_length_c       17.393254956853934
_cell_angle_alpha    90.00021149662669
_cell_angle_beta     91.7383393923241
_cell_angle_gamma    90.00034161898796

_space_group_name_H-M_alt    "P 1"
_space_group_IT_number       1

loop_
  _space_group_symop_operation_xyz
  'x, y, z'

loop_
  _atom_site_type_symbol
  _atom_site_label
  _atom_site_symmetry_multiplicity
  _atom_site_fract_x
  _atom_site_fract_y
  _atom_site_fract_z
  _atom_site_occupancy
  H   H1        1.0  0.5223304642027171  0.9293834162487651  0.43515441947952127  1.0000
  H   H2        1.0  0.9776689480387901  0.42938196666394274  0.064847153008239  1.0000
  H   H3        1.0  0.4776695359798519  0.07061658383326255  0.5648455804894226  1.0000
  H   H4        1.0  0.022331052143778996  0.570618033418085  0.9351528469607048  1.0000
  H   H5        1.0  0.5662613992584951  0.1857951795898616  0.42527138434742495  1.0000
  H   H6        1.0  0.9337419818542476  0.6857861250413948  0.07472066193805037  1.0000
  H   H7        1.0  0.4337386009240738  0.8142048204921661  0.5747286156215189  1.0000
  H   H8        1.0  0.06625801832832129  0.314213875040633  0.9252793380308934  1.0000
  H   H9        1.0  0.810919855048396  0.9837233722570606  0.33738804747424783  1.0000
  H   H10       1.0  0.6890797230129765  0.4837217898202301  0.1626128304624067  1.0000
  H   H11       1.0  0.1890801451341729  0.01627662782496718  0.6626119524946961  1.0000
  H   H12       1.0  0.31092027716959253  0.5162782102617977  0.8373871695065371  1.0000
  H   H13       1.0  0.7615455411919705  0.21386097977730117  0.3807016501695108  1.0000
  H   H14       1.0  0.7384496610381129  0.7138569599289488  0.11929864052636308  1.0000
  H   H15       1.0  0.23845445899059853  0.7861390203047266  0.619298349799433  1.0000
  H   H16       1.0  0.26155033914445613  0.28614304015307895  0.8807013594425808  1.0000
  H   H17       1.0  0.6979253733762374  0.8264424485271127  0.2893777406373383  1.0000
  H   H18       1.0  0.802076019449204  0.3264380631773762  0.21062030453397096  1.0000
  H   H19       1.0  0.30207462600944185  0.1735575515549121  0.7106222593147384  1.0000
  H   H20       1.0  0.19792398073336487  0.6735619369046516  0.7893796954349729  1.0000
  H   H21       1.0  0.555306250990157  0.6806129642460512  0.3300878085749804  1.0000
  H   H22       1.0  0.9446926430401089  0.18061768217659072  0.16990874365474154  1.0000
  H   H23       1.0  0.44469374919241195  0.3193870358359766  0.6699121913939635  1.0000
  H   H24       1.0  0.055307357142460184  0.8193823179054369  0.8300912563142023  1.0000
  H   H25       1.0  0.5111193707457464  0.8058104372590693  0.27767102124050574  1.0000
  H   H26       1.0  0.9888800705951916  0.3058073773056689  0.2223281493000451  1.0000
  H   H27       1.0  0.4888806294368224  0.19418956282295854  0.722328978728438  1.0000
  H   H28       1.0  0.011119929587377508  0.6941926227763588  0.7776718506688989  1.0000
  H   H29       1.0  0.689522182096992  0.03692270195836992  0.5908156843247243  1.0000
  H   H30       1.0  0.8104638522298213  0.5369216931022505  0.9091839630083312  1.0000
  H   H31       1.0  0.31047781808557695  0.9630772981236577  0.4091843156442195  1.0000
  H   H32       1.0  0.18953614795274767  0.46307830697977737  0.09081603696061276  1.0000
  H   H33       1.0  0.8239456834131725  0.06473868850609552  0.5649242602117029  1.0000
  H   H34       1.0  0.6760456651682487  0.5647333084207399  0.9350804019948572  1.0000
  H   H35       1.0  0.17605431597250656  0.9352613115759293  0.4350757397403739  1.0000
  H   H36       1.0  0.3239543350143202  0.43526669166128784  0.06491959797408657  1.0000
  H   H37       1.0  0.748639140894036  0.9385430544320547  0.5189377547266811  1.0000
  H   H38       1.0  0.751355609032605  0.4385395142356144  0.9810672831180509  1.0000
  H   H39       1.0  0.25136085928853064  0.06145694466612494  0.48106224524226165  1.0000
  H   H40       1.0  0.2486443911507703  0.5614604858464153  0.01893271742584591  1.0000
  H   H41       1.0  0.6886068349343671  0.3482752699931678  0.4685285967106967  1.0000
  H   H42       1.0  0.8113927265392137  0.8482798998883887  0.031465731442886315  1.0000
  H   H43       1.0  0.3113931652482018  0.65172473008886  0.5314714032582473  1.0000
  H   H44       1.0  0.18860727364335533  0.1517201001936391  0.9685342685260575  1.0000
  H   H45       1.0  0.7963099508431981  0.2979903522732122  0.5316299350779062  1.0000
  H   H46       1.0  0.7036875235102779  0.7979883927312367  0.9683686447769605  1.0000
  H   H47       1.0  0.20369004933937088  0.7020096478088156  0.4683700648910377  1.0000
  H   H48       1.0  0.2963124758754012  0.2020116073507881  0.031631355175116206  1.0000
  H   H49       1.0  0.6617888952547689  0.28887700752573964  0.5627392672150765  1.0000
  H   H50       1.0  0.8382066548877163  0.7888729832309648  0.9372578073440655  1.0000
  H   H51       1.0  0.33821110413091016  0.7111229925562852  0.4372607327370003  1.0000
  H   H52       1.0  0.16179334449796048  0.2111270158672118  0.06274219260801021  1.0000
  H   H53       1.0  0.07105401397303981  0.24547658245044948  0.5327073390946825  1.0000
  H   H54       1.0  0.42894220430657687  0.7454820688221675  0.9672913271286758  1.0000
  H   H55       1.0  0.9289459862095293  0.7545234176315784  0.46729266087426125  1.0000
  H   H56       1.0  0.5710577958759921  0.2545179312598603  0.032708672840268106  1.0000
  H   H57       1.0  0.9705528173560019  0.21714382093185516  0.6613798117830254  1.0000
  H   H58       1.0  0.5294571164571398  0.7171400685383078  0.8386198851264892  1.0000
  H   H59       1.0  0.029447182029677263  0.7828561791501696  0.3386201881690514  1.0000
  H   H60       1.0  0.47054288372542924  0.28285993154371997  0.1613801148424546  1.0000
  H   H61       1.0  0.1938695689947288  0.5122976009847303  0.683668578872268  1.0000
  H   H62       1.0  0.30613361317348053  0.012299945251122919  0.8163361548505215  1.0000
  H   H63       1.0  0.8061304311878401  0.4877023990972974  0.3163314210966757  1.0000
  H   H64       1.0  0.6938663870090884  0.9877000548309048  0.18366384511842238  1.0000
  H   H65       1.0  0.04633899259201011  0.37234891797849484  0.7572785425244218  1.0000
  H   H66       1.0  0.45365682889605774  0.8723395809786564  0.7427244176852363  1.0000
  H   H67       1.0  0.9536610067936689  0.6276510821035299  0.2427214574276549  1.0000
  H   H68       1.0  0.5463431712865089  0.12766041811952306  0.2572755822837064  1.0000
  H   H69       1.0  0.3008547226185933  0.42427620950361333  0.5907697009077587  1.0000
  H   H70       1.0  0.19914323899498895  0.9242706425338554  0.9092339391899723  1.0000
  H   H71       1.0  0.6991452775639757  0.5757237905784145  0.40923029906118524  1.0000
  H   H72       1.0  0.8008567611875801  0.07572935754817252  0.09076606077897148  1.0000
  H   H73       1.0  0.7841621528587704  0.39627498576767667  0.6703086655163106  1.0000
  H   H74       1.0  0.7158427679237788  0.8962732984075251  0.8296893288488648  1.0000
  H   H75       1.0  0.21583784732379616  0.6037250133305029  0.32969133445263205  1.0000
  H   H76       1.0  0.28415723225879014  0.10372670167450268  0.17031067112007908  1.0000
  H   H77       1.0  0.84572405418266  0.49228562876582493  0.7457966466165997  1.0000
  H   H78       1.0  0.6542778325467428  0.9922850840371512  0.7542023902431155  1.0000
  H   H79       1.0  0.15427594599990915  0.5077143713162029  0.25420335335234406  1.0000
  H   H80       1.0  0.34572216763582625  0.0077149160448765665  0.24579760972582834  1.0000
  H   H81       1.0  0.8598341048051609  0.31804741801374453  0.7457155844428861  1.0000
  H   H82       1.0  0.6401686707926717  0.8180455987417263  0.754283688079433  1.0000
  H   H83       1.0  0.14016589458051829  0.6819525820682804  0.2542844155091907  1.0000
  H   H84       1.0  0.3598313293898971  0.18195440134030144  0.24571631188951087  1.0000
  H   H85       1.0  0.016265290383033714  0.5448996057894604  0.5714733279252254  1.0000
  H   H86       1.0  0.48373332222667736  0.044896383618196846  0.9285223308166594  1.0000
  H   H87       1.0  0.9837347090026454  0.45510039429256444  0.4285266720268514  1.0000
  H   H88       1.0  0.5162666779558917  0.955103616463831  0.07147766915228457  1.0000
  H   H89       1.0  0.9266532186771537  0.6231917790075041  0.6334278123475645  1.0000
  H   H90       1.0  0.5733468095575579  0.12318719592950317  0.8665675381364686  1.0000
  H   H91       1.0  0.07334678150541535  0.37680822107452366  0.36657218762137933  1.0000
  H   H92       1.0  0.42665319062501106  0.8768128041525246  0.13343246183247526  1.0000
  H   H93       1.0  0.8780789844154805  0.5099405980414371  0.5626090627346158  1.0000
  H   H94       1.0  0.621921415855849  0.009947535015431627  0.9373917362977534  1.0000
  H   H95       1.0  0.12192101576708853  0.4900594020405908  0.4373909372343281  1.0000
  H   H96       1.0  0.37807858432672  0.9900524650665964  0.06260826367119046  1.0000
  H   H97       1.0  0.4569107835939061  0.33382988693649357  0.5240380716854024  1.0000
  H   H98       1.0  0.043089011605016755  0.8338310808425499  0.9759606938532414  1.0000
  H   H99       1.0  0.5430892165886628  0.6661701131455342  0.47596192828354145  1.0000
  H   H100      1.0  0.9569109885775522  0.16616891923947788  0.02403930611570257  1.0000
  H   H101      1.0  0.3987899303395788  0.48631233538955276  0.5002685641878541  1.0000
  H   H102      1.0  0.10121542157298004  0.9863099645634479  0.9997302636604446  1.0000
  H   H103      1.0  0.6012100698429902  0.5136876646924748  0.4997314357810896  1.0000
  H   H104      1.0  0.8987845786095889  0.01369003551858001  0.00026973630849932913  1.0000
  H   H105      1.0  0.46607597308580384  0.3965977919473047  0.42856278316811836  1.0000
  H   H106      1.0  0.03392521669721098  0.8965960677198023  0.07143579750285227  1.0000
  H   H107      1.0  0.5339240270967628  0.6034022071508748  0.5714372168008244  1.0000
  H   H108      1.0  0.9660747834853581  0.10340393236222552  0.9285642024660916  1.0000
  H   H109      1.0  0.22691901650136476  0.20644483341540523  0.3686487754264236  1.0000
  H   H110      1.0  0.27307672890442636  0.7064423643621207  0.1313524388782766  1.0000
  H   H111      1.0  0.7730809836812043  0.7935551666666226  0.6313512245425202  1.0000
  H   H112      1.0  0.7269232712781426  0.29355763571990706  0.8686475610906673  1.0000
  H   H113      1.0  0.36913956787059704  0.18463165405635967  0.37131862374312175  1.0000
  H   H114      1.0  0.1308560579381656  0.6846282194487777  0.12868265803944476  1.0000
  H   H115      1.0  0.6308604323119719  0.8153683460256682  0.6286813762258221  1.0000
  H   H116      1.0  0.8691439422444033  0.31537178063325005  0.8713173419294992  1.0000
  H   H117      1.0  0.31461267755668176  0.33042635332862175  0.33353919786537956  1.0000
  H   H118      1.0  0.18538310334109456  0.8304245975560445  0.1664607508228829  1.0000
  H   H119      1.0  0.6853873226266934  0.6695736467534079  0.6664608026785173  1.0000
  H   H120      1.0  0.8146168968414744  0.16957540252598327  0.8335392491460609  1.0000
  H   H121      1.0  0.4822284756811427  0.5599797028751919  0.20324264656406987  1.0000
  H   H122      1.0  0.017765898575031396  0.05996589589375677  0.29675598016683047  1.0000
  H   H123      1.0  0.5177715245014264  0.44002029720683583  0.796757353404874  1.0000
  H   H124      1.0  0.9822341008106477  0.940034104188268  0.7032440197852464  1.0000
  H   H125      1.0  0.3804567983717189  0.5980503799855805  0.24546275758308875  1.0000
  H   H126      1.0  0.11954116032522538  0.09804651210448577  0.25453980199298876  1.0000
  H   H127      1.0  0.6195432018108477  0.4019496191125991  0.754537242385854  1.0000
  H   H128      1.0  0.8804588398573436  0.9019534879775422  0.7454601979759551  1.0000
  C   C1        1.0  0.6579928253844032  0.9522748848812996  0.3739784367670764  1.0000
  C   C2        1.0  0.8420109029831123  0.4522690606248349  0.1260183362617719  1.0000
  C   C3        1.0  0.34200717479816584  0.04772511520072817  0.6260215632018673  1.0000
  C   C4        1.0  0.15798909719945664  0.5477309394571929  0.873981663707172  1.0000
  C   C5        1.0  0.7056953755166554  0.13760940675244462  0.48311470167788995  1.0000
  C   C6        1.0  0.7943043424690942  0.6376006192039873  0.016881625865407583  1.0000
  C   C7        1.0  0.2943046238690238  0.8623905933295801  0.5168852982741868  1.0000
  C   C8        1.0  0.20569565691658487  0.3623993808780376  0.9831183740866694  1.0000
  C   C9        1.0  0.7442881801600114  0.03798257254238753  0.542910219045793  1.0000
  C   C10       1.0  0.7557023454982922  0.5379810188901759  0.9570909762108714  1.0000
  C   C11       1.0  0.25571182002255766  0.9620174275396404  0.45708978092315083  1.0000
  C   C12       1.0  0.24429765468427678  0.46201898119185186  0.04290902375807236  1.0000
  C   C13       1.0  0.7134919948549762  0.2776400202647553  0.5133609399932956  1.0000
  C   C14       1.0  0.7865075271013519  0.7776390259180546  0.986636938824505  1.0000
  C   C15       1.0  0.2865080053275929  0.7223599798172724  0.4866390599756482  1.0000
  C   C16       1.0  0.21349247308202338  0.22236097416397507  0.013363061719391701  1.0000
  C   C17       1.0  0.14690361489095446  0.3648299874493206  0.610161578862056  1.0000
  C   C18       1.0  0.3530880789189448  0.8648270033543759  0.8898381707383668  1.0000
  C   C19       1.0  0.8530963852916121  0.6351700116488589  0.38983842110688677  1.0000
  C   C20       1.0  0.646911920466732  0.1351729957438008  0.11016182921370887  1.0000
  C   C21       1.0  0.9537855946006394  0.41883149523102264  0.6617167586893247  1.0000
  C   C22       1.0  0.546216503308917  0.9188318039269748  0.8382816634924112  1.0000
  C   C23       1.0  0.046214405581929664  0.5811685048510052  0.3382832412796191  1.0000
  C   C24       1.0  0.4537834968736519  0.08116819615505277  0.1617183364765327  1.0000
  C   C25       1.0  0.8544643704205248  0.4055087300999767  0.7089958632517801  1.0000
  C   C26       1.0  0.6455373009305873  0.9055054009769017  0.7910040825481169  1.0000
  C   C27       1.0  0.14553562976204404  0.594491269982051  0.29100413671716374  1.0000
  C   C28       1.0  0.3544626984550918  0.09449459910512295  0.2089959174039598  1.0000
  C   C29       1.0  0.9434509076312164  0.5306746030644321  0.603770730796647  1.0000
  C   C30       1.0  0.5565494501746342  0.03067194700636537  0.8962278964615369  1.0000
  C   C31       1.0  0.05654909255135257  0.4693253970175956  0.39622926917229695  1.0000
  C   C32       1.0  0.4434505500079348  0.9693280530756624  0.1037721035074069  1.0000
  C   C33       1.0  0.31296208392477937  0.318643891427425  0.45531419198117823  1.0000
  C   C34       1.0  0.18703610279727073  0.8186382445064806  0.04468439706785532  1.0000
  C   C35       1.0  0.6870379162585959  0.6813561086546045  0.5446858085627185  1.0000
  C   C36       1.0  0.8129638973852983  0.18136175557554718  0.9553156029010886  1.0000
  C   C37       1.0  0.4140558252833806  0.3876740999909845  0.47762129886745197  1.0000
  C   C38       1.0  0.08594492931057522  0.8876729579609655  0.022377721249956354  1.0000
  C   C39       1.0  0.5859441748991884  0.6123259000910433  0.5223787011014919  1.0000
  C   C40       1.0  0.9140550708719913  0.11232704113721398  0.9776222787189865  1.0000
  C   C41       1.0  0.30387678440500826  0.25516329577687696  0.3782693371826683  1.0000
  C   C42       1.0  0.19611764734753753  0.7551629295308353  0.12173002542429262  1.0000
  C   C43       1.0  0.6961232157775608  0.7448367043051508  0.6217306627862755  1.0000
  C   C44       1.0  0.8038823528350315  0.24483707055119258  0.8782699745446512  1.0000
  N   N1        1.0  0.5803393484601991  0.9939569885775101  0.4194658058336837  1.0000
  N   N2        1.0  0.9196538477658666  0.49395394676615045  0.08053130950992402  1.0000
  N   N3        1.0  0.4196606517223698  0.00604301150451768  0.5805341941352602  1.0000
  N   N4        1.0  0.08034615161981268  0.5060460533158744  0.9194686904421527  1.0000
  N   N5        1.0  0.591237876445583  0.11175986363649935  0.4622484782170584  1.0000
  N   N6        1.0  0.9087604581928914  0.6117631600347438  0.03775012874546467  1.0000
  N   N7        1.0  0.408762123736986  0.8882401364455286  0.5377515217518855  1.0000
  N   N8        1.0  0.0912395411927877  0.38823684004728093  0.9622498712066121  1.0000
  N   N9        1.0  0.7480137058449905  0.021430103470112667  0.36811048877005176  1.0000
  N   N10       1.0  0.751986752738646  0.5214217952827962  0.1318904700557978  1.0000
  N   N11       1.0  0.25198629433757846  0.9785698966119151  0.6318895111988921  1.0000
  N   N12       1.0  0.24801324744392297  0.4785782047992316  0.868109529913146  1.0000
  N   N13       1.0  0.7718759249413107  0.13121209246897136  0.4146956185884614  1.0000
  N   N14       1.0  0.7281245804892758  0.6312149387443362  0.0853061069670712  1.0000
  N   N15       1.0  0.22812407444436833  0.8687879076130535  0.5853043813636154  1.0000
  N   N16       1.0  0.271875419693291  0.36878506035384334  0.9146938930018716  1.0000
  N   N17       1.0  0.6482789107529707  0.8372906957935164  0.3354353287980221  1.0000
  N   N18       1.0  0.8517193531899983  0.33728967335769894  0.1645631508592041  1.0000
  N   N19       1.0  0.3517210894295983  0.16270930428851135  0.6645646711709218  1.0000
  N   N20       1.0  0.14828064699257068  0.6627103267243288  0.8354368491097398  1.0000
  N   N21       1.0  0.5453945183016696  0.7810425977885415  0.3300032345620516  1.0000
  N   N22       1.0  0.9546033676013803  0.2810318328943446  0.16999449136884376  1.0000
  N   N23       1.0  0.45460548108400956  0.21895740229348337  0.6699967653900252  1.0000
  N   N24       1.0  0.04539663258118869  0.7189681671876832  0.8300055086001003  1.0000
  N   N25       1.0  0.06607130847225841  0.2892878935653565  0.5852186812752684  1.0000
  N   N26       1.0  0.43392516731414915  0.7892711433097199  0.9147769617021891  1.0000
  N   N27       1.0  0.9339286909134182  0.7107121055328202  0.41478131867680723  1.0000
  N   N28       1.0  0.5660748320715299  0.21072885677230488  0.08522303824988765  1.0000
  N   N29       1.0  0.9669904618351478  0.2912270103693966  0.6209625956015151  1.0000
  N   N30       1.0  0.5330062438213437  0.7912197165105465  0.8790342658821741  1.0000
  N   N31       1.0  0.03300953834742109  0.7087729897126313  0.3790374043674287  1.0000
  N   N32       1.0  0.4669937563620315  0.2087802835714831  0.12096573466172254  1.0000
  N   N33       1.0  0.14215260412313088  0.43322638866177715  0.6759112297804377  1.0000
  N   N34       1.0  0.357846552733671  0.9332323446729819  0.8240871995382909  1.0000
  N   N35       1.0  0.857847396059438  0.5667736114202506  0.3240887701885061  1.0000
  N   N36       1.0  0.642153447448898  0.0667676554090459  0.17591280043065297  1.0000
  N   N37       1.0  0.04518167452585225  0.4443694526266145  0.7152257454817195  1.0000
  N   N38       1.0  0.45481910549373894  0.9443708984742216  0.7847751794918871  1.0000
  N   N39       1.0  0.9548183256567168  0.5556305474554133  0.2847742544872244  1.0000
  N   N40       1.0  0.5451808938919401  0.055629101607803134  0.21522482046018976  1.0000
  N   N41       1.0  0.23391772767629465  0.377788107752137  0.5666493508606666  1.0000
  N   N42       1.0  0.2660841103003837  0.8777804404498363  0.9333471982414071  1.0000
  N   N43       1.0  0.7660822725062745  0.6222118923298907  0.4333506491082773  1.0000
  N   N44       1.0  0.7339158898821854  0.12221955963219154  0.0666528017275367  1.0000
  N   N45       1.0  0.23065743781448492  0.31167821739777646  0.49789483949227115  1.0000
  N   N46       1.0  0.26933964783081266  0.811670269947876  0.002104376352492993  1.0000
  N   N47       1.0  0.7693425623680841  0.6883217826842513  0.5021051604766728  1.0000
  N   N48       1.0  0.7306603523517564  0.18832973013415186  0.9978956236164509  1.0000
  O   O1        1.0  0.5981722409495925  0.5005446496930422  0.3499811253107787  1.0000
  O   O2        1.0  0.9018497578765887  0.0005374283071779389  0.14998896479095605  1.0000
  O   O3        1.0  0.4018277592329764  0.49945535038898553  0.6500188746581651  1.0000
  O   O4        1.0  0.09815024230598036  0.9994625717748497  0.8500110351779878  1.0000
  O   O5        1.0  0.7291279584357917  0.3485334336815817  0.29971510751507946  1.0000
  O   O6        1.0  0.7708926005911308  0.8485192417216962  0.20026196276581468  1.0000
  O   O7        1.0  0.27087204174677726  0.6514665664004461  0.7002848924538644  1.0000
  O   O8        1.0  0.22910739959143817  0.15148075836033156  0.7997380372031291  1.0000
  O   O9        1.0  0.547648320064091  0.27385647915049727  0.3217306776287796  1.0000
  O   O10       1.0  0.9523677712433806  0.7738401957940232  0.1782400424905369  1.0000
  O   O11       1.0  0.45235167932158804  0.7261435209315275  0.6782693223232971  1.0000
  O   O12       1.0  0.04763222893918844  0.2261598042880046  0.821759957478407  1.0000
  O   O13       1.0  0.5816122692723235  0.42561672563197106  0.21635921614935594  1.0000
  O   O14       1.0  0.9184073425914673  0.9255979770790561  0.2836134039578441  1.0000
  O   O15       1.0  0.41838773011335567  0.5743832744500539  0.783640783802721  1.0000
  O   O16       1.0  0.08159265759110175  0.07440202300297157  0.7163865960110997  1.0000
  O   O17       1.0  0.00035416721333179696  0.047217044804765004  0.47661530053210766  1.0000
  O   O18       1.0  0.4996434150684375  0.5471802353438121  0.0233818439842638  1.0000
  O   O19       1.0  0.9996458329692373  0.9527829552772625  0.5233846994368362  1.0000
  O   O20       1.0  0.5003565851141314  0.4528197647382156  0.97661815598468  1.0000
  O   O21       1.0  0.42518477388354053  0.6270751467250839  0.20410601724436972  1.0000
  O   O22       1.0  0.07480840294142083  0.12707745713276827  0.2958997058488133  1.0000
  O   O23       1.0  0.5748152262990284  0.372924853356944  0.7958939827245741  1.0000
  O   O24       1.0  0.9251915964442583  0.8729225429492566  0.7041002941032634  1.0000
  S   S1        1.0  0.6127839967833937  0.3870279212281787  0.2971968781725547  1.0000
  S   S2        1.0  0.8872337272632794  0.8870146049944906  0.20279752915139182  1.0000
  S   S3        1.0  0.3872160033991752  0.6129720788538492  0.7028031217963892  1.0000
  S   S4        1.0  0.11276627292009583  0.11298539508753908  0.7972024713925049  1.0000
