data_image0
_chemical_formula_structural       H16C24N2O2Cl10
_chemical_formula_sum              "H16 C24 N2 O2 Cl10"
_cell_length_a       7.269301419772044
_cell_length_b       8.938816387149169
_cell_length_c       13.136281204206641
_cell_angle_alpha    99.65277025038418
_cell_angle_beta     118.10081210618594
_cell_angle_gamma    103.62238780724923

_space_group_name_H-M_alt    "P 1"
_space_group_IT_number       1

loop_
  _space_group_symop_operation_xyz
  'x, y, z'

loop_
  _atom_site_type_symbol
  _atom_site_label
  _atom_site_symmetry_multiplicity
  _atom_site_fract_x
  _atom_site_fract_y
  _atom_site_fract_z
  _atom_site_occupancy
  H   H1        1.0  0.5023740919271045  0.77442300492171  0.39832267492898144  1.0000
  H   H2        1.0  0.49762590805150353  0.2255769953567598  0.6016773255775341  1.0000
  H   H3        1.0  0.751615173855516  0.986507506342029  0.5899345197550833  1.0000
  H   H4        1.0  0.24838482523312658  0.013492493542863205  0.41006547983892294  1.0000
  H   H5        1.0  0.15184284729096717  0.0202449541803416  0.7162864695803732  1.0000
  H   H6        1.0  0.8481571517976755  0.9797550457045506  0.283713530013633  1.0000
  H   H7        1.0  0.03418242162228994  0.6147496090858742  0.4344226610730331  1.0000
  H   H8        1.0  0.9658175788430348  0.3852503908011595  0.5655773385214619  1.0000
  H   H9        1.0  0.6302596860599265  0.5883896809586006  0.3200582157316561  1.0000
  H   H10       1.0  0.3697403144053982  0.4116103189284331  0.6799417838628389  1.0000
  H   H11       1.0  0.4027275878413618  0.7401177569364046  0.6186178535997413  1.0000
  H   H12       1.0  0.5972724126239629  0.2598822429506291  0.3813821459947537  1.0000
  H   H13       1.0  0.47546598707246607  0.9550267620047477  0.6636557440846841  1.0000
  H   H14       1.0  0.5245340129061419  0.044973238273722245  0.33634425642183136  1.0000
  H   H15       1.0  0.41961923992144645  0.8481210851784471  0.7529400178071852  1.0000
  H   H16       1.0  0.5803807605438784  0.1518789147085866  0.24705998178730973  1.0000
  C   C1        1.0  0.11975087333766314  0.6785290428448407  0.23338529775473024  1.0000
  C   C2        1.0  0.8802491271276619  0.32147095704219303  0.7666147018397649  1.0000
  C   C3        1.0  0.9833450622860086  0.7171121011567435  0.12805233562992702  1.0000
  C   C4        1.0  0.01665493817931639  0.2828878987302902  0.871947663964568  1.0000
  C   C5        1.0  0.8023305190537958  0.5980949311596152  0.019765362498368275  1.0000
  C   C6        1.0  0.19766948141152907  0.4019050687274184  0.9802346370961267  1.0000
  C   C7        1.0  0.7468319908734548  0.4330315589883243  0.01116473231845307  1.0000
  C   C8        1.0  0.25316800910515314  0.5669684412901456  0.9888352681880623  1.0000
  C   C9        1.0  0.875639598816188  0.38934081573149415  0.1124831326557756  1.0000
  C   C10       1.0  0.12436040027245455  0.610659184153398  0.8875168669382305  1.0000
  C   C11       1.0  0.058304979555316494  0.509221431010117  0.21992122763958935  1.0000
  C   C12       1.0  0.9416950195333261  0.49077856887477517  0.7800787719544169  1.0000
  C   C13       1.0  0.8210521856790343  0.9056844114259603  0.5598511644731052  1.0000
  C   C14       1.0  0.1789478147862904  0.09431558846107325  0.4401488351213897  1.0000
  C   C15       1.0  0.04413173706758076  0.924387785607449  0.628267002297186  1.0000
  C   C16       1.0  0.9558682629110272  0.07561221467102099  0.3717329982093294  1.0000
  C   C17       1.0  0.12799079285439138  0.8202483898066646  0.5854890936056679  1.0000
  C   C18       1.0  0.8720092062342513  0.17975161007822751  0.41451090598833823  1.0000
  C   C19       1.0  0.9767889246749741  0.6976814527693582  0.4721200984893426  1.0000
  C   C20       1.0  0.023211074413668625  0.30231854711553396  0.5278799011046637  1.0000
  C   C21       1.0  0.7543799755238533  0.6821101834862189  0.4077655108290298  1.0000
  C   C22       1.0  0.24562002494147156  0.3178898164008147  0.5922344887654653  1.0000
  C   C23       1.0  0.36865352812034125  0.8401070443028033  0.6583399645903845  1.0000
  C   C24       1.0  0.6313464720123818  0.159892954432454  0.3416600350025373  1.0000
  N   N1        1.0  0.6809444718762123  0.7854034906503778  0.4518409040809892  1.0000
  N   N2        1.0  0.3190555281023956  0.21459650962809204  0.5481590964255262  1.0000
  O   O1        1.0  0.286928261764724  0.7908096782317975  0.3336994913827785  1.0000
  O   O2        1.0  0.713071739590566  0.20919032204881396  0.6663005091242258  1.0000
  Cl  Cl1       1.0  0.05048837697650901  0.9183329738016076  0.13732659170973197  1.0000
  Cl  Cl2       1.0  0.9495116243787809  0.08166702647900374  0.8626734087972722  1.0000
  Cl  Cl3       1.0  0.6469038753320197  0.6546499887485024  0.8969499251584059  1.0000
  Cl  Cl4       1.0  0.35309612513330524  0.3453500111385313  0.10305007443608911  1.0000
  Cl  Cl5       1.0  0.5251705932252768  0.28573899312323237  0.8785550179996305  1.0000
  Cl  Cl6       1.0  0.47482940724004785  0.7142610067638013  0.12144498159486436  1.0000
  Cl  Cl7       1.0  0.808045719145241  0.18826069354701924  0.1030586762925252  1.0000
  Cl  Cl8       1.0  0.1919542813200836  0.8117393063400143  0.8969413233019696  1.0000
  Cl  Cl9       1.0  0.2221421604421522  0.4545697236560155  0.34275325088923725  1.0000
  Cl  Cl10      1.0  0.7778578395364558  0.5454302766224545  0.6572467496172782  1.0000
