data_image0
_chemical_formula_structural       H16C24N2O2Cl10
_chemical_formula_sum              "H16 C24 N2 O2 Cl10"
_cell_length_a       7.358130128915691
_cell_length_b       8.789357330043542
_cell_length_c       13.166085905074855
_cell_angle_alpha    100.98641615326855
_cell_angle_beta     116.4964962889864
_cell_angle_gamma    104.4900710384623

_space_group_name_H-M_alt    "P 1"
_space_group_IT_number       1

loop_
  _space_group_symop_operation_xyz
  'x, y, z'

loop_
  _atom_site_type_symbol
  _atom_site_label
  _atom_site_symmetry_multiplicity
  _atom_site_fract_x
  _atom_site_fract_y
  _atom_site_fract_z
  _atom_site_occupancy
  H   H1        1.0  0.49842065307344857  0.7760192750976905  0.39617978236709395  1.0000
  H   H2        1.0  0.5015793476989863  0.22398072521786702  0.6038202183651434  1.0000
  H   H3        1.0  0.7507318252875271  0.9874375820464669  0.5910563341877555  1.0000
  H   H4        1.0  0.24926817329003811  0.012562417813097441  0.40894366560807227  1.0000
  H   H5        1.0  0.13992210154989618  0.012185037338086005  0.7096678984404321  1.0000
  H   H6        1.0  0.8600778984182785  0.9878149625460253  0.29033210138683047  1.0000
  H   H7        1.0  0.994748684771163  0.5967333362389604  0.41234549704830215  1.0000
  H   H8        1.0  0.005251315197011693  0.40326666364515096  0.5876545027789606  1.0000
  H   H9        1.0  0.6061222543945879  0.5814390915294876  0.3074923633468651  1.0000
  H   H10       1.0  0.3938777455735869  0.41856090835462373  0.6925076364803976  1.0000
  H   H11       1.0  0.45211372111332426  0.9470162603584273  0.6781669666583164  1.0000
  H   H12       1.0  0.5478862788548503  0.052983739525683846  0.3218330331689462  1.0000
  H   H13       1.0  0.35776511690038026  0.7707575615843122  0.7129770503577763  1.0000
  H   H14       1.0  0.6422348838720546  0.22924243873124528  0.2870229503744612  1.0000
  H   H15       1.0  0.36891578338946346  0.7415533838971097  0.5781111950400989  1.0000
  H   H16       1.0  0.6310842151881019  0.2584466159624548  0.42188880475572893  1.0000
  C   C1        1.0  0.12346796091335724  0.683655170784713  0.23398702764760787  1.0000
  C   C2        1.0  0.8765320390548175  0.3163448290993982  0.7660129721796546  1.0000
  C   C3        1.0  0.9964577914699183  0.7270263179286645  0.13325399860619622  1.0000
  C   C4        1.0  0.0035422084982565318  0.27297368195544686  0.8667460012210665  1.0000
  C   C5        1.0  0.8135031256468732  0.6068114160935483  0.02524209978498639  1.0000
  C   C6        1.0  0.18649687432130152  0.3931885837905631  0.9747579000422764  1.0000
  C   C7        1.0  0.7460931650080219  0.43648794186274026  0.012687699499347829  1.0000
  C   C8        1.0  0.2539068349601527  0.563512058021371  0.9873123003279148  1.0000
  C   C9        1.0  0.8645851105326147  0.3884940591125603  0.11002944247027556  1.0000
  C   C10       1.0  0.13541489023982017  0.6115059412029972  0.8899705582619619  1.0000
  C   C11       1.0  0.05008757479779016  0.5093171158396645  0.2167972512200821  1.0000
  C   C12       1.0  0.9499124251703845  0.49068288404444677  0.7832027486071805  1.0000
  C   C13       1.0  0.8133443610318849  0.90314942768092  0.5564514320236553  1.0000
  C   C14       1.0  0.18665563893628975  0.09685057220319121  0.4435485678036072  1.0000
  C   C15       1.0  0.029159070660673178  0.916694506890258  0.6200784086058817  1.0000
  C   C16       1.0  0.9708409293075015  0.0833054929938533  0.37992159122138086  1.0000
  C   C17       1.0  0.10165272393384778  0.807060432443828  0.5703247538921772  1.0000
  C   C18       1.0  0.898347276034327  0.19293956744028332  0.42967524593508544  1.0000
  C   C19       1.0  0.9471895573667487  0.6846404729764713  0.45539566525125097  1.0000
  C   C20       1.0  0.05281044260142588  0.3153595269076399  0.5446043345760115  1.0000
  C   C21       1.0  0.7327088222700698  0.6744524286467062  0.3961468349475559  1.0000
  C   C22       1.0  0.2672911763074953  0.32554757121285827  0.6038531648482718  1.0000
  C   C23       1.0  0.3326299422192357  0.8170570048468159  0.6375495658863773  1.0000
  C   C24       1.0  0.6673700577489392  0.18294299503729552  0.36245043394088533  1.0000
  N   N1        1.0  0.6704228477163616  0.7829006359869256  0.44681555092228253  1.0000
  N   N2        1.0  0.3295771522518131  0.21709936389718568  0.5531844489049801  1.0000
  O   O1        1.0  0.29303510801698285  0.7967721598006454  0.3337167702494147  1.0000
  O   O2        1.0  0.706964892755452  0.20322784051491222  0.6662832304828227  1.0000
  Cl  Cl1       1.0  0.07966354976492905  0.9345595312741468  0.14730092162941846  1.0000
  Cl  Cl2       1.0  0.9203364502032455  0.06544046860996443  0.8526990781978441  1.0000
  Cl  Cl3       1.0  0.6709109012100658  0.6690730067597654  0.9074971299096559  1.0000
  Cl  Cl4       1.0  0.32908909875810916  0.3309269931243459  0.0925028699176068  1.0000
  Cl  Cl5       1.0  0.5245250115397546  0.28721952097257564  0.8797259330352885  1.0000
  Cl  Cl6       1.0  0.47547498842842  0.7127804789115357  0.12027406679197412  1.0000
  Cl  Cl7       1.0  0.781635846079713  0.1816460041794918  0.09688230690794424  1.0000
  Cl  Cl8       1.0  0.21836415388846178  0.8183539957046195  0.9031176929193185  1.0000
  Cl  Cl9       1.0  0.20460486462778102  0.4495819521846805  0.3339719610629193  1.0000
  Cl  Cl10      1.0  0.7953951353403937  0.5504180476994308  0.6660280387643434  1.0000
