data_image0
_chemical_formula_structural       H41C32N11O8
_chemical_formula_sum              "H41 C32 N11 O8"
_cell_length_a       8.781287715058628
_cell_length_b       9.663451778804273
_cell_length_c       10.295803323107307
_cell_angle_alpha    86.93545397223697
_cell_angle_beta     85.93798604718005
_cell_angle_gamma    78.78165691566308

_space_group_name_H-M_alt    "P 1"
_space_group_IT_number       1

loop_
  _space_group_symop_operation_xyz
  'x, y, z'

loop_
  _atom_site_type_symbol
  _atom_site_label
  _atom_site_symmetry_multiplicity
  _atom_site_fract_x
  _atom_site_fract_y
  _atom_site_fract_z
  _atom_site_occupancy
  H   H1        1.0  0.8716662334007954  0.03598391295324221  0.49244996019115583  1.0000
  H   H2        1.0  0.5656521451787975  0.5963504097208251  0.5361566406048005  1.0000
  H   H3        1.0  0.7460666830482684  0.6183074334662458  0.6031962735092151  1.0000
  H   H4        1.0  0.1254973383872816  0.9530041026091223  0.5418146221367557  1.0000
  H   H5        1.0  0.4367967652062118  0.4045074738482631  0.4451022521603362  1.0000
  H   H6        1.0  0.25170718458836766  0.3861073401239411  0.38449604920724284  1.0000
  H   H7        1.0  0.588774135881704  0.7300446447822216  0.22994940165948474  1.0000
  H   H8        1.0  0.7407346834141829  0.8153483345361638  0.37796246620438545  1.0000
  H   H9        1.0  0.5535998318943959  0.8409233988827672  0.4447533156675852  1.0000
  H   H10       1.0  0.6270029548997758  0.9755098521759243  0.3820314272540347  1.0000
  H   H11       1.0  0.6594646645298883  0.019517022894887333  0.13528053682380364  1.0000
  H   H12       1.0  0.6470752250385179  0.8787365934811989  0.03521719886905566  1.0000
  H   H13       1.0  0.7984779241806803  0.8577391843232766  0.144227333727791  1.0000
  H   H14       1.0  0.3492965890632147  0.717023938594737  0.15977829841022603  1.0000
  H   H15       1.0  0.07041183216789172  0.819606809912226  0.1316362739771794  1.0000
  H   H16       1.0  0.9643124862406539  0.06997931620525218  0.18430607242265576  1.0000
  H   H17       1.0  0.1382143263984331  0.21624929468559334  0.26538618501256134  1.0000
  H   H18       1.0  0.41591617809341896  0.11474647715159281  0.293262291589955  1.0000
  H   H19       1.0  0.38581790638427715  0.9664235658232385  0.7421778604867331  1.0000
  H   H20       1.0  0.2564093261661213  0.17933449234737497  0.6486009178899979  1.0000
  H   H21       1.0  0.442225355166379  0.15012451429325313  0.5865301929896178  1.0000
  H   H22       1.0  0.3828885457418434  0.2743468376440368  0.7028269564195128  1.0000
  H   H23       1.0  0.3413681174398909  0.2021054906490953  0.9395096011434547  1.0000
  H   H24       1.0  0.33650413124470124  0.02182055900138188  0.9761732408122974  1.0000
  H   H25       1.0  0.19088654130363944  0.12724892272075716  0.8820034547180973  1.0000
  H   H26       1.0  0.5883465113158365  0.24387134861260473  0.8647704204804819  1.0000
  H   H27       1.0  0.8688318362152959  0.19523088957409226  0.8996282584161608  1.0000
  H   H28       1.0  0.03099487207940775  0.9592000344977599  0.8511126646027897  1.0000
  H   H29       1.0  0.9081913876446845  0.7746375877948126  0.7629254119731608  1.0000
  H   H30       1.0  0.6259554425769224  0.8263918529694556  0.7249556784960449  1.0000
  H   H31       1.0  0.24017791888398268  0.45967123159984635  0.924906138334451  1.0000
  H   H32       1.0  0.46934295039558277  0.48988238878780854  0.7088703404959961  1.0000
  H   H33       1.0  0.2874574087756585  0.4849782727659464  0.6918461540706322  1.0000
  H   H34       1.0  0.3460626236331006  0.7311726418982658  0.8180350855576697  1.0000
  H   H35       1.0  0.21666983807185877  0.7175896231762793  0.9564167025838308  1.0000
  H   H36       1.0  0.16154998807055113  0.685518063443124  0.7993738193278136  1.0000
  H   H37       1.0  0.3570432153403155  0.37264535953437233  0.11667077705672925  1.0000
  H   H38       1.0  0.5843716424971592  0.32709166038526954  0.25379179561892323  1.0000
  H   H39       1.0  0.8237872762212807  0.42016216007927143  0.18224420730545568  1.0000
  H   H40       1.0  0.8357656380146029  0.5535284887294056  0.9682418331997934  1.0000
  H   H41       1.0  0.6103448660152682  0.5978347541475759  0.8324221179122457  1.0000
  C   C1        1.0  0.6882784563058625  0.2083344285477582  0.4867836959292226  1.0000
  C   C2        1.0  0.734166007279752  0.420658757085768  0.5573423283755777  1.0000
  C   C3        1.0  0.8840690757287553  0.35247645703802205  0.6002238673975466  1.0000
  C   C4        1.0  0.9432979754291594  0.20698262832688263  0.5676189604250023  1.0000
  C   C5        1.0  0.3133258666833088  0.7862509384077684  0.5241189589963449  1.0000
  C   C6        1.0  0.2644482764904751  0.5788242263110205  0.44274363104386627  1.0000
  C   C7        1.0  0.10739449498422711  0.646198107663182  0.41611606961235204  1.0000
  C   C8        1.0  0.05030836156871702  0.7876732174154568  0.4611444153780561  1.0000
  C   C9        1.0  0.4019616731323877  0.908626150296917  0.2274308764753144  1.0000
  C   C10       1.0  0.5728004987430714  0.8450089218936212  0.23739572676919318  1.0000
  C   C11       1.0  0.675881425661839  0.9041151809102881  0.131770486309124  1.0000
  C   C12       1.0  0.3028331976315291  0.8268815983192473  0.1824883958553674  1.0000
  C   C13       1.0  0.14623856051977913  0.8846455168548353  0.16660234075862712  1.0000
  C   C14       1.0  0.08658584423226193  0.024754647117009906  0.1963618350398621  1.0000
  C   C15       1.0  0.18444392839820295  0.106806072211909  0.24214633595722102  1.0000
  C   C16       1.0  0.3410808067046707  0.049404096877120676  0.2572188655586299  1.0000
  C   C17       1.0  0.5874788275100655  0.03709753063324234  0.7941292488057038  1.0000
  C   C18       1.0  0.41415343624866896  0.06283238036318677  0.7772551877481965  1.0000
  C   C19       1.0  0.3147695538187772  0.106520858745945  0.9009600907497742  1.0000
  C   C20       1.0  0.657773244953554  0.14084282956051483  0.8420303811671446  1.0000
  C   C21       1.0  0.8164560884064247  0.11310893327448646  0.8622263406412608  1.0000
  C   C22       1.0  0.9071000179783381  0.9810242682830818  0.8348934095123203  1.0000
  C   C23       1.0  0.8387860702832632  0.8776823292093543  0.7854819842540555  1.0000
  C   C24       1.0  0.6800256893286681  0.9061006078683826  0.7647008998026327  1.0000
  C   C25       1.0  0.46737953463955034  0.4878481478785398  0.9645076559379356  1.0000
  C   C26       1.0  0.3303121157902681  0.5142299731221115  0.8788777109143184  1.0000
  C   C27       1.0  0.25954340015578553  0.6717292680725756  0.8625425549302073  1.0000
  C   C28       1.0  0.462220916030247  0.4122757088725087  0.08402397361915273  1.0000
  C   C29       1.0  0.5901082598444524  0.38683182234380514  0.16142955329000203  1.0000
  C   C30       1.0  0.7249587396740483  0.43754591357470857  0.12102954225545433  1.0000
  C   C31       1.0  0.7313018431425177  0.5133959468410056  0.001832396349961738  1.0000
  C   C32       1.0  0.603526684797921  0.5382385865922131  0.924879912829704  1.0000
  N   N1        1.0  0.8383227785279304  0.14338294761483092  0.510673342797514  1.0000
  N   N2        1.0  0.6397753369646153  0.34641068189213303  0.5056353922052031  1.0000
  N   N3        1.0  0.6753771783388267  0.55770031215982  0.5703487997090575  1.0000
  N   N4        1.0  0.9713659376350229  0.42369840393123953  0.6726213442222673  1.0000
  N   N5        1.0  0.1587497476996251  0.8482171482331184  0.5159107754830864  1.0000
  N   N6        1.0  0.36304226449044846  0.6516470154679743  0.49028566319150385  1.0000
  N   N7        1.0  0.32223747474788395  0.44280308164291904  0.42345705317818155  1.0000
  N   N8        1.0  0.01136977059490172  0.5779561371869436  0.3497725715178903  1.0000
  N   N9        1.0  0.6270610165870375  0.8687694649259389  0.3671303646056871  1.0000
  N   N10       1.0  0.37162217410483406  0.17356798241831306  0.6707705395722551  1.0000
  N   N11       1.0  0.3770837604771156  0.4500507555857491  0.7510254623029121  1.0000
  O   O1        1.0  0.596222742760786  0.13639309655260431  0.4457533656678602  1.0000
  O   O2        1.0  0.9363331031613816  0.5575653900254779  0.6770368796329077  1.0000
  O   O3        1.0  0.08178055275347183  0.35596700630877876  0.7345840229442083  1.0000
  O   O4        1.0  0.07769228781422975  0.13690037582765172  0.5824834949902086  1.0000
  O   O5        1.0  0.40523960959682076  0.857366073729432  0.564356423185761  1.0000
  O   O6        1.0  0.0561418329278449  0.4482254125659025  0.32450246992225806  1.0000
  O   O7        1.0  0.8829004306287446  0.6436858820083996  0.31270731058103296  1.0000
  O   O8        1.0  0.9141964015657424  0.8572514971921456  0.4571438611899834  1.0000
