data_image0
_chemical_formula_structural       H68C24N12I16
_chemical_formula_sum              "H68 C24 N12 I16"
_cell_length_a       8.079435220497052
_cell_length_b       22.716505597364186
_cell_length_c       8.225305658343299
_cell_angle_alpha    90.0
_cell_angle_beta     92.65961068586577
_cell_angle_gamma    90.0

_space_group_name_H-M_alt    "P 1"
_space_group_IT_number       1

loop_
  _space_group_symop_operation_xyz
  'x, y, z'

loop_
  _atom_site_type_symbol
  _atom_site_label
  _atom_site_symmetry_multiplicity
  _atom_site_fract_x
  _atom_site_fract_y
  _atom_site_fract_z
  _atom_site_occupancy
  H   H1        1.0  0.0848348876847647  0.4057457178215592  0.2434065310950342  1.0000
  H   H2        1.0  0.0848348877381893  0.09425428223645617  0.7434065311598498  1.0000
  H   H3        1.0  0.915165113120308  0.594254281854263  0.7565934694615506  1.0000
  H   H4        1.0  0.9151651130668834  0.9057457178795747  0.25659346939673505  1.0000
  H   H5        1.0  0.152149867808386  0.44993426943208836  0.09592547735584527  1.0000
  H   H6        1.0  0.1521498678618106  0.05006573062592708  0.5959254774206608  1.0000
  H   H7        1.0  0.8478501329966868  0.5500657306839425  0.9040745232007396  1.0000
  H   H8        1.0  0.8478501329432621  0.9499342694901037  0.404074523135924  1.0000
  H   H9        1.0  0.27503514233519516  0.46463452597325056  0.43227524647851434  1.0000
  H   H10       1.0  0.2750351423886197  0.035365474084764904  0.9322752465433299  1.0000
  H   H11       1.0  0.7249648571717171  0.5353654741427804  0.5677247528640551  1.0000
  H   H12       1.0  0.7249648571182925  0.964634526031266  0.06772475279923966  1.0000
  H   H13       1.0  0.49002308619564106  0.46163101472863743  0.3926998157564803  1.0000
  H   H14       1.0  0.49002308624906565  0.03836898532937801  0.8926998158212959  1.0000
  H   H15       1.0  0.5099769133112713  0.5383689853873934  0.6073001835860894  1.0000
  H   H16       1.0  0.5099769132578466  0.9616310147866528  0.10730018352127375  1.0000
  H   H17       1.0  0.8801800851912092  0.4364604955416395  0.9315376953238959  1.0000
  H   H18       1.0  0.8801800851377846  0.0635395045163759  0.4315376952590803  1.0000
  H   H19       1.0  0.11981991555326536  0.5635395041341827  0.06846230401562153  1.0000
  H   H20       1.0  0.11981991560668993  0.9364604955996549  0.5684623040804371  1.0000
  H   H21       1.0  0.971305082759271  0.4038028300912773  0.7752828583640627  1.0000
  H   H22       1.0  0.9713050827058465  0.0961971699667381  0.2752828582992472  1.0000
  H   H23       1.0  0.028694916747641217  0.5961971700247536  0.22471714097850684  1.0000
  H   H24       1.0  0.02869491680106582  0.9038028301492927  0.7247171410433225  1.0000
  H   H25       1.0  0.4281285685124588  0.40782541752702284  0.1336725578111208  1.0000
  H   H26       1.0  0.4281285685658834  0.09217458253099259  0.6336725578759363  1.0000
  H   H27       1.0  0.5718714309944535  0.5921745825890079  0.8663274415314488  1.0000
  H   H28       1.0  0.5718714309410289  0.9078254171448297  0.3663274414666332  1.0000
  H   H29       1.0  0.3541554042865187  0.3683251829441072  0.30326069586460286  1.0000
  H   H30       1.0  0.35415540433994325  0.13167481711390816  0.8032606959294184  1.0000
  H   H31       1.0  0.6458445965185542  0.6316748171719236  0.6967393046919821  1.0000
  H   H32       1.0  0.6458445964651295  0.8683251830021227  0.1967393046271665  1.0000
  H   H33       1.0  0.1897848951145104  0.3196831012971742  0.09227766518448278  1.0000
  H   H34       1.0  0.18978489516793504  0.1803168987608412  0.5922776652492984  1.0000
  H   H35       1.0  0.810215104453  0.6803168988188566  0.9077223353751542  1.0000
  H   H36       1.0  0.8102151043995754  0.8196831013551896  0.4077223353103387  1.0000
  H   H37       1.0  0.2186248877634273  0.3694039364475882  0.9292137123387115  1.0000
  H   H38       1.0  0.2186248877100027  0.13059606361042728  0.4292137122738959  1.0000
  H   H39       1.0  0.7813751130416454  0.6305960636684427  0.0707862882178734  1.0000
  H   H40       1.0  0.78137511309507  0.8694039365056035  0.5707862882826891  1.0000
  H   H41       1.0  0.9536487561141297  0.3081917898856916  0.9154013794295555  1.0000
  H   H42       1.0  0.9536487560607051  0.19180820973211526  0.4154013793647399  1.0000
  H   H43       1.0  0.046351243453380854  0.6918082097901307  0.08459862113008157  1.0000
  H   H44       1.0  0.04635124344620718  0.808191789943707  0.5845986199778297  1.0000
  H   H45       1.0  0.8831103707899913  0.34742895671928337  0.08562675791146925  1.0000
  H   H46       1.0  0.8831103708434159  0.15257104333873203  0.5856267579762847  1.0000
  H   H47       1.0  0.11688962995448318  0.6525710433967474  0.9143732414280482  1.0000
  H   H48       1.0  0.1168896299010586  0.8474289567772989  0.4143732413632326  1.0000
  H   H49       1.0  0.6433739230258813  0.3743763191723813  0.8993779146986686  1.0000
  H   H50       1.0  0.6433739229724567  0.12562368088563414  0.3993779146338529  1.0000
  H   H51       1.0  0.35662607777919153  0.6256236809436495  0.10062208585791642  1.0000
  H   H52       1.0  0.35662607783261613  0.8743763192303967  0.6006220859227319  1.0000
  H   H53       1.0  0.7358660337348246  0.3385665302718213  0.7335674917293804  1.0000
  H   H54       1.0  0.7358660336814001  0.1614334697861941  0.23356749166456472  1.0000
  H   H55       1.0  0.26413396707024805  0.6614334698442095  0.2664325088272046  1.0000
  H   H56       1.0  0.26413396712367265  0.8385665303298369  0.7664325088920201  1.0000
  H   H57       1.0  0.4272253213439947  0.5161010310212653  0.14787094764369899  1.0000
  H   H58       1.0  0.4272253213974193  0.9838989687125724  0.6478709477085145  1.0000
  H   H59       1.0  0.5727746794004797  0.483898968654557  0.8521290516958184  1.0000
  H   H60       1.0  0.5727746794076534  0.01610103096324988  0.35212905284807033  1.0000
  H   H61       1.0  0.2528894781034747  0.5677741215399145  0.4196676236696522  1.0000
  H   H62       1.0  0.25288947815689927  0.9322258781939232  0.9196676237344679  1.0000
  H   H63       1.0  0.7471105214640358  0.43222587857611633  0.5803323768899847  1.0000
  H   H64       1.0  0.7471105214106112  0.06777412148189904  0.08033237682516924  1.0000
  H   H65       1.0  0.45931166422856307  0.5848211100540692  0.369851495858752  1.0000
  H   H66       1.0  0.4593116642819877  0.9151788896797683  0.8698514959235676  1.0000
  H   H67       1.0  0.5406883353389476  0.41517888962175303  0.630148504700885  1.0000
  H   H68       1.0  0.5406883352855228  0.08482110999605383  0.1301485046360695  1.0000
  C   C1        1.0  0.3641596116120933  0.4636709724061675  0.3348383903280651  1.0000
  C   C2        1.0  0.36415961166551786  0.03632902765184785  0.8348383903928808  1.0000
  C   C3        1.0  0.635840387894819  0.5363290277098632  0.6651616090145045  1.0000
  C   C4        1.0  0.6358403878413944  0.963670972464183  0.16516160894968893  1.0000
  C   C5        1.0  0.3400745471622627  0.4088576070906642  0.23152914334258268  1.0000
  C   C6        1.0  0.3400745472156873  0.0911423929673512  0.7315291434073983  1.0000
  C   C7        1.0  0.6599254523446495  0.5911423925851581  0.7684708559999869  1.0000
  C   C8        1.0  0.659925452291225  0.9088576071486797  0.2684708559351713  1.0000
  C   C9        1.0  0.14247563943007474  0.36011088831150095  0.033320594638565244  1.0000
  C   C10       1.0  0.14247563818533887  0.13988911174651447  0.5333205934893656  1.0000
  C   C11       1.0  0.857524361374998  0.6398891118045299  0.9666794059180196  1.0000
  C   C12       1.0  0.8575243613215735  0.8601108879293078  0.46667940585320405  1.0000
  C   C13       1.0  0.962885448048913  0.35022813548062326  0.981137223396886  1.0000
  C   C14       1.0  0.9628854479954884  0.14977186457739217  0.48113722333207054  1.0000
  C   C15       1.0  0.03711455145799929  0.6497718641951991  0.018862775945683485  1.0000
  C   C16       1.0  0.037114551511423885  0.8502281355386386  0.5188627760104991  1.0000
  C   C17       1.0  0.7249914023204214  0.3805862945312837  0.7975541349862246  1.0000
  C   C18       1.0  0.7249914022669968  0.11941370552673174  0.29755413492140903  1.0000
  C   C19       1.0  0.27500859724708915  0.6194137051445386  0.20244586557341246  1.0000
  C   C20       1.0  0.2750085973005138  0.8805862945892992  0.7024458656382281  1.0000
  C   C21       1.0  0.336445606403529  0.5713306399337195  0.3178249758699787  1.0000
  C   C22       1.0  0.3364456064569536  0.9286693602403268  0.8178249759347943  1.0000
  C   C23       1.0  0.6635543931639816  0.42866936018231133  0.6821750246896583  1.0000
  C   C24       1.0  0.663554393110557  0.07133063987570405  0.18217502462484275  1.0000
  N   N1        1.0  0.16967852988168197  0.4090245619061284  0.15229534990002644  1.0000
  N   N2        1.0  0.16967852993510657  0.09097543815188698  0.6522953499648421  1.0000
  N   N3        1.0  0.8303214696252302  0.5909754382099024  0.8477046494425431  1.0000
  N   N4        1.0  0.8303214695718057  0.9090245619641438  0.3477046493777276  1.0000
  N   N5        1.0  0.8923034652033324  0.39649717256887845  0.8695924852929534  1.0000
  N   N6        1.0  0.892303465149908  0.10350282748913699  0.36959248522813787  1.0000
  N   N7        1.0  0.10769653436417806  0.6035028275471525  0.13040751526668362  1.0000
  N   N8        1.0  0.10769653441760266  0.8964971726268939  0.6304075153314993  1.0000
  N   N9        1.0  0.3369771044976685  0.5152407067994682  0.2315721767122174  1.0000
  N   N10       1.0  0.3369771033135309  0.984759293374578  0.7315721767800851  1.0000
  N   N11       1.0  0.6630228963074042  0.48475929331656253  0.7684278238443674  1.0000
  N   N12       1.0  0.6630228962539796  0.015240706741452862  0.26842782377955193  1.0000
  I   I1        1.0  0.19875692409785486  0.5064472227337158  0.8024972010858982  1.0000
  I   I2        1.0  0.19875692404443024  0.9935527774403304  0.3024972010210826  1.0000
  I   I3        1.0  0.8012430767072178  0.49355277738231507  0.19750279947068675  1.0000
  I   I4        1.0  0.8012430767606425  0.006447222675700337  0.6975027995355024  1.0000
  I   I5        1.0  0.3986326882155932  0.2671902592581961  0.7372412745916969  1.0000
  I   I6        1.0  0.3986326881621687  0.23280974035961075  0.23724127452688135  1.0000
  I   I7        1.0  0.6013673113519172  0.7328097404176261  0.2627587259679402  1.0000
  I   I8        1.0  0.6013673114053418  0.7671902593162115  0.7627587260327556  1.0000
  I   I9        1.0  0.6996245829555962  0.21150766034004345  0.8573356522399744  1.0000
  I   I10       1.0  0.6996245829021714  0.28849233971797195  0.35733565217515884  1.0000
  I   I11       1.0  0.3003754178494767  0.7884923397759874  0.14266434831661046  1.0000
  I   I12       1.0  0.30037541790290123  0.7115076603980589  0.642664348381426  1.0000
  I   I13       1.0  0.034013175470172935  0.16485517651247064  0.0005883600226198872  1.0000
  I   I14       1.0  0.034013175523597526  0.33514482354554476  0.5005883600874355  1.0000
  I   I15       1.0  0.9659868252743016  0.8351448236035601  0.9994116393168975  1.0000
  I   I16       1.0  0.9659868252208769  0.6648551765704861  0.49941163925208204  1.0000
