data_image0
_chemical_formula_structural       H112C48N24I40
_chemical_formula_sum              "H112 C48 N24 I40"
_cell_length_a       25.222281253489736
_cell_length_b       7.999020293651865
_cell_length_c       16.823564018562017
_cell_angle_alpha    90.0
_cell_angle_beta     104.14080535287538
_cell_angle_gamma    90.0

_space_group_name_H-M_alt    "P 1"
_space_group_IT_number       1

loop_
  _space_group_symop_operation_xyz
  'x, y, z'

loop_
  _atom_site_type_symbol
  _atom_site_label
  _atom_site_symmetry_multiplicity
  _atom_site_fract_x
  _atom_site_fract_y
  _atom_site_fract_z
  _atom_site_occupancy
  H   H1        1.0  0.766950539900405  0.05524791959219321  0.6119366685047068  1.0000
  H   H2        1.0  0.266950539739566  0.5552479187388472  0.6119366684015232  1.0000
  H   H3        1.0  0.7669505398333062  0.9447520812014208  0.11193666847874756  1.0000
  H   H4        1.0  0.2669505396724672  0.44475208080461376  0.11193666837556375  1.0000
  H   H5        1.0  0.23304946006011237  0.9447520812014208  0.38806333113853414  1.0000
  H   H6        1.0  0.7330494602209513  0.44475208080461376  0.38806333124171793  1.0000
  H   H7        1.0  0.23304946012721117  0.05524791959219321  0.8880633311644934  1.0000
  H   H8        1.0  0.7330494602880503  0.5552479187388472  0.8880633312676773  1.0000
  H   H9        1.0  0.7696404867443541  0.9244475196379384  0.6992743609127867  1.0000
  H   H10       1.0  0.26964048698032506  0.42444751924113133  0.699274360811673  1.0000
  H   H11       1.0  0.7696404870740653  0.07555248115567569  0.19927436088889747  1.0000
  H   H12       1.0  0.2696404869132263  0.5755524815524826  0.19927436078571364  1.0000
  H   H13       1.0  0.23035951331471158  0.07555248115567569  0.30072563934342944  1.0000
  H   H14       1.0  0.7303595129801923  0.5755524815524826  0.300725638831568  1.0000
  H   H15       1.0  0.2303595128864521  0.9244475196379384  0.8007256387543435  1.0000
  H   H16       1.0  0.7303595130472911  0.42444751924113133  0.8007256388575273  1.0000
  H   H17       1.0  0.796656975512383  0.13299849993433477  0.7131745737738574  1.0000
  H   H18       1.0  0.2966569753515441  0.6329985003311417  0.7131745736706737  1.0000
  H   H19       1.0  0.7966569754452842  0.8670014996091262  0.2131745737478981  1.0000
  H   H20       1.0  0.29665697528444535  0.36700149921231917  0.21317457364471434  1.0000
  H   H21       1.0  0.20334302444813424  0.8670014996091262  0.2868254258693836  1.0000
  H   H22       1.0  0.7033430246089732  0.36700149921231917  0.2868254259725674  1.0000
  H   H23       1.0  0.20334302451523303  0.13299849993433477  0.7868254258953429  1.0000
  H   H24       1.0  0.703343024676072  0.6329985003311417  0.7868254259985268  1.0000
  H   H25       1.0  0.553137861994194  0.4970508104792965  0.7445518351325031  1.0000
  H   H26       1.0  0.05313786183335497  0.9970508096259504  0.7445518350293193  1.0000
  H   H27       1.0  0.5531378619270951  0.5029491903143175  0.2445518351065438  1.0000
  H   H28       1.0  0.05313786176625616  0.002949189917510505  0.24455183500336  1.0000
  H   H29       1.0  0.4468621380648718  0.5029491903143175  0.2554481651237131  1.0000
  H   H30       1.0  0.9468621382257106  0.002949189917510505  0.25544816522689684  1.0000
  H   H31       1.0  0.4468621381319705  0.4970508104792965  0.7554481651496724  1.0000
  H   H32       1.0  0.9468621382928095  0.9970508096259504  0.7554481652528562  1.0000
  H   H33       1.0  0.3702911385206416  0.22391193099252707  0.662497820218018  1.0000
  H   H34       1.0  0.8702911382846706  0.723911930139181  0.6624978203191318  1.0000
  H   H35       1.0  0.3702911384535427  0.7760880698010869  0.16249782019205863  1.0000
  H   H36       1.0  0.8702911386143819  0.27608806940427993  0.16249782029524246  1.0000
  H   H37       1.0  0.6297088615384241  0.7760880698010869  0.33750218003819826  1.0000
  H   H38       1.0  0.129708861774395  0.27608806940427993  0.3375021799370844  1.0000
  H   H39       1.0  0.629708861605523  0.22391193099252707  0.8375021800641576  1.0000
  H   H40       1.0  0.12970886144468394  0.723911930139181  0.8375021799609738  1.0000
  H   H41       1.0  0.6197052483040001  0.45929890975719756  0.7318983022823962  1.0000
  H   H42       1.0  0.11970524814316102  0.9592989089038515  0.7318983021792125  1.0000
  H   H43       1.0  0.6197052482369011  0.5407010910364164  0.23189830225643684  1.0000
  H   H44       1.0  0.1197052480760622  0.04070109063960946  0.23189830215325305  1.0000
  H   H45       1.0  0.3802947516565174  0.5407010910364164  0.2681016973608448  1.0000
  H   H46       1.0  0.8802947518173564  0.04070109063960946  0.2681016974640286  1.0000
  H   H47       1.0  0.38029475172361615  0.45929890975719756  0.7681016973868041  1.0000
  H   H48       1.0  0.8802947518844552  0.9592989089038515  0.768101697489988  1.0000
  H   H49       1.0  0.5367499596380549  0.1938569553612247  0.7110934881771718  1.0000
  H   H50       1.0  0.036749959874025795  0.6938569545078787  0.7110934880760581  1.0000
  H   H51       1.0  0.5367499595709561  0.8061430454323893  0.21109348815121248  1.0000
  H   H52       1.0  0.036749959806926975  0.3061430450355823  0.21109348805009875  1.0000
  H   H53       1.0  0.46325004042101087  0.8061430454323893  0.2889065120790444  1.0000
  H   H54       1.0  0.9632500401850399  0.3061430450355823  0.2889065121801581  1.0000
  H   H55       1.0  0.46325004048810964  0.1938569553612247  0.7889065121050036  1.0000
  H   H56       1.0  0.9632500402521387  0.6938569545078787  0.7889065122061175  1.0000
  H   H57       1.0  0.37767573615836025  0.42424673590254236  0.62160011702016  1.0000
  H   H58       1.0  0.8776757359223893  0.9242467350491963  0.6216001171212738  1.0000
  H   H59       1.0  0.3776757361898098  0.5757532648910716  0.12160011760717596  1.0000
  H   H60       1.0  0.8776757362521004  0.07575326449426462  0.12160011709738455  1.0000
  H   H61       1.0  0.6223242638021571  0.5757532648910716  0.3783998826230809  1.0000
  H   H62       1.0  0.12232426364131814  0.07575326449426462  0.3783998825198971  1.0000
  H   H63       1.0  0.622324263869256  0.42424673590254236  0.8783998826490402  1.0000
  H   H64       1.0  0.12232426370841695  0.9242467350491963  0.8783998825458564  1.0000
  H   H65       1.0  0.45587770650327525  0.4272847004416854  0.5441378845950087  1.0000
  H   H66       1.0  0.9558777062673044  0.9272847008384925  0.5441378846961225  1.0000
  H   H67       1.0  0.4558777064361764  0.5727152991017754  0.04413788456904933  1.0000
  H   H68       1.0  0.9558777062002055  0.07271529870496847  0.04413788467016308  1.0000
  H   H69       1.0  0.5441222935557904  0.5727152991017754  0.4558621156612075  1.0000
  H   H70       1.0  0.04412229379176133  0.07271529870496847  0.4558621155600938  1.0000
  H   H71       1.0  0.5441222936228892  0.4272847004416854  0.955862115687167  1.0000
  H   H72       1.0  0.04412229346205024  0.9272847008384925  0.955862115583983  1.0000
  H   H73       1.0  0.4802197770790815  0.5054845195490857  0.6441917234073309  1.0000
  H   H74       1.0  0.9802197772399205  0.005484519152278744  0.6441917235105146  1.0000
  H   H75       1.0  0.48021977740879257  0.49451548124452827  0.14419172338344158  1.0000
  H   H76       1.0  0.9802197771728216  0.9945154803911822  0.14419172348455533  1.0000
  H   H77       1.0  0.5197802229799843  0.49451548124452827  0.35580827684888533  1.0000
  H   H78       1.0  0.019780222819145217  0.9945154803911822  0.3558082767457015  1.0000
  H   H79       1.0  0.5197802225517247  0.5054845195490857  0.8558082762597995  1.0000
  H   H80       1.0  0.01978022288624403  0.005484519152278744  0.8558082767716608  1.0000
  H   H81       1.0  0.5317110388942905  0.2229393531374397  0.5636872637057881  1.0000
  H   H82       1.0  0.03171103873345159  0.7229393522840937  0.5636872636026045  1.0000
  H   H83       1.0  0.5317110388271917  0.7770606476561742  0.06368726367982885  1.0000
  H   H84       1.0  0.031711038666352755  0.2770606472593673  0.06368726357664506  1.0000
  H   H85       1.0  0.46828896116477514  0.7770606476561742  0.43631273655042807  1.0000
  H   H86       1.0  0.9682889613256142  0.2770606472593673  0.43631273665361175  1.0000
  H   H87       1.0  0.46828896123187397  0.2229393531374397  0.9363127365763874  1.0000
  H   H88       1.0  0.9682889609959031  0.7229393522840937  0.9363127366775011  1.0000
  H   H89       1.0  0.4372470283859771  0.16583863289517667  0.6016279515738323  1.0000
  H   H90       1.0  0.9372470285468162  0.6658386332919837  0.6016279516770161  1.0000
  H   H91       1.0  0.4372470283188783  0.8341613666482843  0.10162795154787295  1.0000
  H   H92       1.0  0.9372470284797173  0.33416136625147724  0.10162795165105674  1.0000
  H   H93       1.0  0.5627529715745403  0.8341613666482843  0.3983720480694088  1.0000
  H   H94       1.0  0.06275297151224965  0.33416136625147724  0.3983720485792001  1.0000
  H   H95       1.0  0.5627529716416391  0.16583863289517667  0.8983720480953681  1.0000
  H   H96       1.0  0.06275297157934846  0.6658386332919837  0.8983720486051594  1.0000
  H   H97       1.0  0.5976628046696308  0.19692449477220395  0.683583807417289  1.0000
  H   H98       1.0  0.09766280450879179  0.6969244951690109  0.6835838073141051  1.0000
  H   H99       1.0  0.597662804602532  0.803075504771257  0.1835838073913295  1.0000
  H   H100      1.0  0.097662804441693  0.30307550437444997  0.18358380728814577  1.0000
  H   H101      1.0  0.4023371952908866  0.803075504771257  0.3164161922259522  1.0000
  H   H102      1.0  0.9023371954517256  0.30307550437444997  0.3164161923291359  1.0000
  H   H103      1.0  0.4023371953579854  0.19692449477220395  0.8164161922519115  1.0000
  H   H104      1.0  0.9023371955188244  0.6969244951690109  0.8164161923550952  1.0000
  H   H105      1.0  0.5589077781381658  0.4277095024643402  0.5874830204469917  1.0000
  H   H106      1.0  0.058907777977326804  0.9277095028611472  0.5874830203438081  1.0000
  H   H107      1.0  0.558907778071067  0.5722904970791207  0.08748302042103252  1.0000
  H   H108      1.0  0.05890777791022799  0.07229049793246678  0.08748302031784873  1.0000
  H   H109      1.0  0.4410922218223516  0.5722904970791207  0.4125169791962492  1.0000
  H   H110      1.0  0.9410922219831906  0.07229049793246678  0.41251697929943293  1.0000
  H   H111      1.0  0.44109222188945035  0.4277095024643402  0.9125169792222084  1.0000
  H   H112      1.0  0.9410922220502894  0.9277095028611472  0.9125169793253923  1.0000
  C   C1        1.0  0.5340791784945158  0.3290109717672058  0.605843499080814  1.0000
  C   C2        1.0  0.03407917833367682  0.8290109721640129  0.6058434989776303  1.0000
  C   C3        1.0  0.5340791784274169  0.6709890277762551  0.1058434990548548  1.0000
  C   C4        1.0  0.03407917826657799  0.17098902737944813  0.10584349895167101  1.0000
  C   C5        1.0  0.46592082156454995  0.6709890277762551  0.39415650117540213  1.0000
  C   C6        1.0  0.9659208217253888  0.17098902737944813  0.39415650127858587  1.0000
  C   C7        1.0  0.4659208216316487  0.3290109717672058  0.8941565012013614  1.0000
  C   C8        1.0  0.9659208217924877  0.8290109721640129  0.8941565013045452  1.0000
  C   C9        1.0  0.4773431285172757  0.3909947262519245  0.6071225125393043  1.0000
  C   C10       1.0  0.9773431286781147  0.8909947266487315  0.6071225126424881  1.0000
  C   C11       1.0  0.4773431288469869  0.6090052732915364  0.10712251251541505  1.0000
  C   C12       1.0  0.9773431286110159  0.10900527289472939  0.10712251261652879  1.0000
  C   C13       1.0  0.5226568714432417  0.6090052732915364  0.39287748710393666  1.0000
  C   C14       1.0  0.022656871380950985  0.10900527289472939  0.3928774876137281  1.0000
  C   C15       1.0  0.5226568711135305  0.3909947262519245  0.892877487127826  1.0000
  C   C16       1.0  0.022656871448049776  0.8909947266487315  0.8928774876396873  1.0000
  C   C17       1.0  0.39924657614829245  0.32768698712768624  0.6644703264446499  1.0000
  C   C18       1.0  0.8992465763091314  0.8276869862743401  0.6644703265478337  1.0000
  C   C19       1.0  0.39924657647800355  0.6723130136659277  0.1644703264207605  1.0000
  C   C20       1.0  0.8992465762420326  0.17231301326912077  0.16447032652187427  1.0000
  C   C21       1.0  0.6007534235139634  0.6723130136659277  0.3355296738094964  1.0000
  C   C22       1.0  0.10075342374993428  0.17231301326912077  0.33552967370838255  1.0000
  C   C23       1.0  0.6007534235810622  0.32768698712768624  0.8355296738354557  1.0000
  C   C24       1.0  0.10075342381703309  0.8276869862743401  0.8355296737343418  1.0000
  C   C25       1.0  0.5849006292735072  0.4014002692989969  0.7496348755175153  1.0000
  C   C26       1.0  0.08490062950947809  0.9014002696958039  0.7496348754164016  1.0000
  C   C27       1.0  0.5849006296032182  0.598599730244464  0.24963487549362606  1.0000
  C   C28       1.0  0.08490062944237926  0.09859972984765701  0.2496348753904422  1.0000
  C   C29       1.0  0.41509937078555853  0.598599730244464  0.2503651247387009  1.0000
  C   C30       1.0  0.9150993704510393  0.09859972984765701  0.25036512422683943  1.0000
  C   C31       1.0  0.41509937045584744  0.4014002692989969  0.7503651247625901  1.0000
  C   C32       1.0  0.9150993705181381  0.9014002696958039  0.7503651242527988  1.0000
  C   C33       1.0  0.7116305692508256  0.11525589836691125  0.6815528417796913  1.0000
  C   C34       1.0  0.21163056948679648  0.6152558987637183  0.6815528416785775  1.0000
  C   C35       1.0  0.7116305691837268  0.8847441011765497  0.181552841753732  1.0000
  C   C36       1.0  0.21163056941969768  0.38474410077974264  0.18155284165261826  1.0000
  C   C37       1.0  0.2883694308082401  0.8847441011765497  0.3184471584765248  1.0000
  C   C38       1.0  0.7883694305722692  0.38474410077974264  0.3184471585776386  1.0000
  C   C39       1.0  0.2883694308753389  0.11525589836691125  0.8184471585024843  1.0000
  C   C40       1.0  0.7883694306393682  0.6152558987637183  0.8184471586035978  1.0000
  C   C41       1.0  0.7643292303852014  0.05339529771401637  0.6762670123782852  1.0000
  C   C42       1.0  0.2643292302243624  0.5533952981108234  0.6762670122751013  1.0000
  C   C43       1.0  0.7643292303181026  0.9466047018294446  0.17626701235232586  1.0000
  C   C44       1.0  0.2643292301572636  0.44660470143263753  0.17626701224914212  1.0000
  C   C45       1.0  0.2356707696738643  0.9466047018294446  0.32373298787793103  1.0000
  C   C46       1.0  0.7356707698347033  0.44660470143263753  0.3237329879811148  1.0000
  C   C47       1.0  0.2356707697409631  0.05339529771401637  0.8237329879038903  1.0000
  C   C48       1.0  0.7356707699018021  0.5533952981108234  0.8237329880070741  1.0000
  N   N1        1.0  0.5636300170339201  0.26764504919421783  0.6886206876066561  1.0000
  N   N2        1.0  0.06363001687308112  0.7676450495910248  0.6886206875034723  1.0000
  N   N3        1.0  0.5636300169668212  0.7323549503492431  0.18862068758069672  1.0000
  N   N4        1.0  0.06363001680598229  0.2323549499524361  0.18862068747751293  1.0000
  N   N5        1.0  0.43636998292659723  0.7323549503492431  0.311379312036585  1.0000
  N   N6        1.0  0.9363699830874362  0.2323549499524361  0.3113793121397687  1.0000
  N   N7        1.0  0.43636998299369606  0.26764504919421783  0.8113793120625443  1.0000
  N   N8        1.0  0.936369983154535  0.7676450495910248  0.8113793121657281  1.0000
  N   N9        1.0  0.44792665469317894  0.26346507105032746  0.6417133095741997  1.0000
  N   N10       1.0  0.947926654854018  0.7634650714471345  0.6417133096773834  1.0000
  N   N11       1.0  0.44792665502289003  0.7365349297432865  0.14171330955031036  1.0000
  N   N12       1.0  0.9479266547869192  0.23653492934647954  0.14171330965142412  1.0000
  N   N13       1.0  0.5520733452673384  0.7365349297432865  0.35828669006904135  1.0000
  N   N14       1.0  0.052073345205047764  0.23653492934647954  0.3582866905788327  1.0000
  N   N15       1.0  0.5520733449376273  0.26346507105032746  0.8582866900929307  1.0000
  N   N16       1.0  0.0520733452721466  0.7634650714471345  0.8582866906047921  1.0000
  N   N17       1.0  0.66911335728252  0.16534942298491984  0.6857620855604474  1.0000
  N   N18       1.0  0.169113357518491  0.6653494233817269  0.6857620854593336  1.0000
  N   N19       1.0  0.6691133572154212  0.834650576558541  0.18576208553448803  1.0000
  N   N20       1.0  0.16911335745139217  0.33465057741188714  0.18576208543337427  1.0000
  N   N21       1.0  0.3308866427765456  0.834650576558541  0.31423791469576884  1.0000
  N   N22       1.0  0.8308866424420264  0.33465057741188714  0.31423791418390745  1.0000
  N   N23       1.0  0.3308866427450961  0.16534942298491984  0.814237914108753  1.0000
  N   N24       1.0  0.8308866425091253  0.6653494233817269  0.8142379142098667  1.0000
  I   I1        1.0  0.5451698694176621  0.8435395588825925  0.6042699169367068  1.0000
  I   I2        1.0  0.04516986965363303  0.34353955848578543  0.6042699168355931  1.0000
  I   I3        1.0  0.5451698697473732  0.15646044191102154  0.10426991691281753  1.0000
  I   I4        1.0  0.045169869586534205  0.6564604410576754  0.10426991680963375  1.0000
  I   I5        1.0  0.45483013064140365  0.15646044191102154  0.39573008331950943  1.0000
  I   I6        1.0  0.9548301304054327  0.6564604410576754  0.39573008342062316  1.0000
  I   I7        1.0  0.4548301303116925  0.8435395588825925  0.8957300833433987  1.0000
  I   I8        1.0  0.9548301304725315  0.34353955848578543  0.8957300834465824  1.0000
  I   I9        1.0  0.5869797574607499  0.8440316703981895  0.7851976244307071  1.0000
  I   I10       1.0  0.08697975729991093  0.34403167000138246  0.7851976243275232  1.0000
  I   I11       1.0  0.5869797573936512  0.15596832914527145  0.2851976244047476  1.0000
  I   I12       1.0  0.08697975723281214  0.6559683295420785  0.28519762430156387  1.0000
  I   I13       1.0  0.4130202425983157  0.15596832914527145  0.2148023758255092  1.0000
  I   I14       1.0  0.9130202427591548  0.6559683295420785  0.21480237592869303  1.0000
  I   I15       1.0  0.41302024266541454  0.8440316703981895  0.7148023758514686  1.0000
  I   I16       1.0  0.9130202428262535  0.34403167000138246  0.7148023759546523  1.0000
  I   I17       1.0  0.6287989374571648  0.8437259842128524  0.9597782164079367  1.0000
  I   I18       1.0  0.12879893769313572  0.3437259838160454  0.9597782163068229  1.0000
  I   I19       1.0  0.628798937390066  0.15627401658076157  0.45977821638197736  1.0000
  I   I20       1.0  0.1287989376260369  0.6562740157274155  0.4597782162808636  1.0000
  I   I21       1.0  0.3712010625033526  0.15627401658076157  0.04022178323530431  1.0000
  I   I22       1.0  0.8712010622673817  0.6562740157274155  0.04022178333641806  1.0000
  I   I23       1.0  0.3712010625704513  0.8437259842128524  0.5402217832612636  1.0000
  I   I24       1.0  0.8712010623344805  0.3437259838160454  0.5402217833623775  1.0000
  I   I25       1.0  0.65982838074595  0.6711205926381214  0.5869473574176722  1.0000
  I   I26       1.0  0.15982838098192095  0.1711205922413144  0.5869473573165586  1.0000
  I   I27       1.0  0.6598283806788511  0.3288794069053395  0.08694735739171286  1.0000
  I   I28       1.0  0.15982838091482213  0.8288794073021465  0.08694735729059912  1.0000
  I   I29       1.0  0.3401716193131157  0.3288794069053395  0.413052642838544  1.0000
  I   I30       1.0  0.8401716190771448  0.8288794073021465  0.41305264293965777  1.0000
  I   I31       1.0  0.3401716193802145  0.6711205926381214  0.9130526428645034  1.0000
  I   I32       1.0  0.8401716191442435  0.1711205922413144  0.9130526429656171  1.0000
  I   I33       1.0  0.7567236175951074  0.5183941092499585  0.5692872127071553  1.0000
  I   I34       1.0  0.25672361783107833  0.01839411010330456  0.5692872126060414  1.0000
  I   I35       1.0  0.7567236175280085  0.4816058902935024  0.06928721268119589  1.0000
  I   I36       1.0  0.2567236177639795  0.9816058906903095  0.06928721258008215  1.0000
  I   I37       1.0  0.2432763824639583  0.4816058902935024  0.430712787549061  1.0000
  I   I38       1.0  0.7432763822279873  0.9816058906903095  0.4307127876501747  1.0000
  I   I39       1.0  0.24327638253105713  0.5183941092499585  0.9307127875750203  1.0000
  I   I40       1.0  0.7432763821965379  0.01839411010330456  0.9307127870631589  1.0000
