data_image0
_chemical_formula_structural       H74C46N16O4P6
_chemical_formula_sum              "H74 C46 N16 O4 P6"
_cell_length_a       8.453096278028491
_cell_length_b       11.547695952160288
_cell_length_c       13.55640183804567
_cell_angle_alpha    91.1601046134458
_cell_angle_beta     98.64402035381698
_cell_angle_gamma    99.52398445678824

_space_group_name_H-M_alt    "P 1"
_space_group_IT_number       1

loop_
  _space_group_symop_operation_xyz
  'x, y, z'

loop_
  _atom_site_type_symbol
  _atom_site_label
  _atom_site_symmetry_multiplicity
  _atom_site_fract_x
  _atom_site_fract_y
  _atom_site_fract_z
  _atom_site_occupancy
  H   H1        1.0  0.18464650982862443  0.3258606948813726  0.49859633041076445  1.0000
  H   H2        1.0  0.8153534900729053  0.6741393047844104  0.5014036695811553  1.0000
  H   H3        1.0  0.0900523089190192  0.3681337688618066  0.600139008637676  1.0000
  H   H4        1.0  0.9099476911817131  0.6318662316820194  0.3998609913536366  1.0000
  H   H5        1.0  0.8517667824888714  0.28547456670041754  0.48128534195598444  1.0000
  H   H6        1.0  0.14823321741265824  0.7145254329653655  0.5187146580359354  1.0000
  H   H7        1.0  0.9531017697535022  0.17652880062543083  0.4354529806222827  1.0000
  H   H8        1.0  0.04689823014802739  0.8234711990403522  0.564547019369637  1.0000
  H   H9        1.0  0.801631977103536  0.06722383083338988  0.5566299460668792  1.0000
  H   H10       1.0  0.19836802279799368  0.9327761688323931  0.44337005392504053  1.0000
  H   H11       1.0  0.8449829531382921  0.1922728299284286  0.6408104593844454  1.0000
  H   H12       1.0  0.15501704676323746  0.8077271697373545  0.3591895406074744  1.0000
  H   H13       1.0  0.0681465663566256  0.09456256859701374  0.7075390423908507  1.0000
  H   H14       1.0  0.931853433544904  0.9054374310687692  0.2924609576010691  1.0000
  H   H15       1.0  0.07772753715752377  0.032314331287849586  0.5872322938681895  1.0000
  H   H16       1.0  0.9222724629432085  0.9676856692559764  0.4127677061231232  1.0000
  H   H17       1.0  0.360823232780901  0.11177792541741097  0.11270666481580194  1.0000
  H   H18       1.0  0.6391767671206285  0.8882220742483721  0.8872933351761179  1.0000
  H   H19       1.0  0.7465922253491291  0.16288199652968405  0.10519599974836213  1.0000
  H   H20       1.0  0.2534077747516035  0.837118004014142  0.8948040002429506  1.0000
  H   H21       1.0  0.9937202900849491  0.10128716351695827  0.9773180107917744  1.0000
  H   H22       1.0  0.006279709816580289  0.8987128361488247  0.022681989200145327  1.0000
  H   H23       1.0  0.7216197582359146  0.09970064820918859  0.8998875471747846  1.0000
  H   H24       1.0  0.2783802416656151  0.9002993514565943  0.10011245281713502  1.0000
  H   H25       1.0  0.36043178681100296  0.2397032522507843  0.7002305136716009  1.0000
  H   H26       1.0  0.6395682130905266  0.7602967474149988  0.2997694863203188  1.0000
  H   H27       1.0  0.8655301382273746  0.2720094705107665  0.25790319388708105  1.0000
  H   H28       1.0  0.1344698618733578  0.7279905300330597  0.7420968061042316  1.0000
  H   H29       1.0  0.6692018854782518  0.2078632195236723  0.2804501367439115  1.0000
  H   H30       1.0  0.33079811442327783  0.7921367801421108  0.7195498632480083  1.0000
  H   H31       1.0  0.7141130674017416  0.4163256951161284  0.3302395346522275  1.0000
  H   H32       1.0  0.285886932499788  0.5836743045496546  0.6697604653396924  1.0000
  H   H33       1.0  0.772752121558825  0.4577603521181802  0.21333514508000223  1.0000
  H   H34       1.0  0.2272478783427046  0.5422396475476028  0.7866648549119175  1.0000
  H   H35       1.0  0.43476264817074245  0.33779598577066616  0.24684579098499015  1.0000
  H   H36       1.0  0.5652373519299899  0.6622040147731599  0.7531542090063225  1.0000
  H   H37       1.0  0.49226306557010235  0.48659159582657  0.21872474228563943  1.0000
  H   H38       1.0  0.5077369345306298  0.513408404717256  0.7812752577056732  1.0000
  H   H39       1.0  0.3475490104530579  0.39857607950844404  0.9638164179442746  1.0000
  H   H40       1.0  0.6524509894484717  0.601423920157339  0.036183582047645026  1.0000
  H   H41       1.0  0.36007455471757577  0.5081184605869948  0.05754394461794607  1.0000
  H   H42       1.0  0.6399254453831565  0.4918815399568312  0.9424560553733666  1.0000
  H   H43       1.0  0.184349126213246  0.26687378217677427  0.09698643561113947  1.0000
  H   H44       1.0  0.8156508736882837  0.7331262174890087  0.9030135643807803  1.0000
  H   H45       1.0  0.1420029981708685  0.40565316944319957  0.12794514706735172  1.0000
  H   H46       1.0  0.8579970019298638  0.5943468311006265  0.872054852923961  1.0000
  H   H47       1.0  0.9237833567024906  0.31238523779739646  0.00021316096244411458  1.0000
  H   H48       1.0  0.076216643199039  0.6876147618683865  0.9997868390294756  1.0000
  H   H49       1.0  0.038214461571721786  0.4250839237326695  0.9420317085064199  1.0000
  H   H50       1.0  0.961785538329808  0.5749160759331136  0.057968291485499875  1.0000
  H   H51       1.0  0.9641678960623574  0.24124320224817347  0.8354004797205837  1.0000
  H   H52       1.0  0.035832103839172284  0.7587567974176096  0.1645995202713361  1.0000
  H   H53       1.0  0.17603062389175966  0.28180162914840734  0.8634980192156382  1.0000
  H   H54       1.0  0.8239693760097699  0.7181983705173756  0.1365019807762815  1.0000
  H   H55       1.0  0.42168600135445317  0.04148663104524451  0.6678143483906356  1.0000
  H   H56       1.0  0.5783139987462793  0.9585133694985816  0.3321856516006771  1.0000
  H   H57       1.0  0.43723412159859537  0.8892246103681855  0.5405555060868351  1.0000
  H   H58       1.0  0.562765878502137  0.11077539017564056  0.45944449390447745  1.0000
  H   H59       1.0  0.6667372723682922  0.7785920732401066  0.5587047292784035  1.0000
  H   H60       1.0  0.3332627275332375  0.22140792642567653  0.44129527071351626  1.0000
  H   H61       1.0  0.8865820973498777  0.823600543974836  0.7066362996200415  1.0000
  H   H62       1.0  0.11341790275085464  0.17639945656898995  0.2933637003712711  1.0000
  H   H63       1.0  0.8798275144193513  0.983019921789381  0.8300017545337623  1.0000
  H   H64       1.0  0.12017248568138113  0.016980078754444926  0.16999824545755032  1.0000
  H   H65       1.0  0.7713909466572335  0.35113255980953484  0.8371050372174279  1.0000
  H   H66       1.0  0.22860905324429598  0.6488674398562481  0.16289496277449175  1.0000
  H   H67       1.0  0.9813441535669003  0.4803342594937088  0.7628707633712827  1.0000
  H   H68       1.0  0.018655846533832055  0.5196657410501173  0.23712923662002994  1.0000
  H   H69       1.0  0.9235976910236439  0.5423831055094691  0.588323029029171  1.0000
  H   H70       1.0  0.07640230887788588  0.4576168941563138  0.41167697096274875  1.0000
  H   H71       1.0  0.6491957519355893  0.4703074335758549  0.487610279101876  1.0000
  H   H72       1.0  0.350804249348903  0.5296925669675187  0.5123897208930799  1.0000
  H   H73       1.0  0.4435220461834954  0.3348975817398315  0.5603810025149297  1.0000
  H   H74       1.0  0.5564779537180342  0.6651024179259514  0.43961899747699  1.0000
  C   C1        1.0  0.10382797313056917  0.29337396801149446  0.5519594048613076  1.0000
  C   C2        1.0  0.8961720279547204  0.7066260316538361  0.4480405951342554  1.0000
  C   C3        1.0  0.9395951619143637  0.22691793234228008  0.5024749178751783  1.0000
  C   C4        1.0  0.06040483818636865  0.7730820682015459  0.4975250821161344  1.0000
  C   C5        1.0  0.892701097689309  0.14443978731106027  0.5842773558792114  1.0000
  C   C6        1.0  0.10729890221222056  0.8555602123547226  0.4157226441127085  1.0000
  C   C7        1.0  0.05457879877793011  0.11029485646604063  0.6274987308030736  1.0000
  C   C8        1.0  0.9454212011235995  0.8897051431997424  0.3725012691888462  1.0000
  C   C9        1.0  0.7347844572534279  0.2706011102470234  0.23414173487855705  1.0000
  C   C10       1.0  0.2652155428473046  0.7293988902968026  0.7658582651127555  1.0000
  C   C11       1.0  0.6932657071929732  0.3924224307555478  0.24978604166905877  1.0000
  C   C12       1.0  0.3067342927085566  0.6075775689102352  0.7502139583228611  1.0000
  C   C13       1.0  0.5172982498633308  0.3974536668829658  0.207040698609905  1.0000
  C   C14       1.0  0.4827017502374016  0.6025463336608602  0.7929593013814077  1.0000
  C   C15       1.0  0.3425232294424946  0.41234107083508553  0.043712244431584515  1.0000
  C   C16       1.0  0.6574767704590351  0.5876589288306975  0.9562877555603353  1.0000
  C   C17       1.0  0.1762550067157994  0.3542044631329656  0.06802274687218074  1.0000
  C   C18       1.0  0.8237449931857302  0.6457955365328173  0.931977253119739  1.0000
  C   C19       1.0  0.043118030351918836  0.33983705497925576  0.9767145692237089  1.0000
  C   C20       1.0  0.9568819697488136  0.6601629455645702  0.023285430767603706  1.0000
  C   C21       1.0  0.06697502038448004  0.25065974187216117  0.8970867581560441  1.0000
  C   C22       1.0  0.9330249795170495  0.7493402577936219  0.10291324183587564  1.0000
  C   C23       1.0  0.6492452843839511  0.0226204828186943  0.7588643520279234  1.0000
  C   C24       1.0  0.3507547155175786  0.9773795168470888  0.24113564796399656  1.0000
  C   C25       1.0  0.524968656084335  0.9955099928463034  0.6759957067056319  1.0000
  C   C26       1.0  0.4750313438171947  0.00449000681947964  0.3240042932862878  1.0000
  C   C27       1.0  0.5332243161702073  0.9086045280587911  0.6048615370067146  1.0000
  C   C28       1.0  0.46677568373132233  0.09139547160699167  0.3951384629852052  1.0000
  C   C29       1.0  0.6619180277421849  0.8456515353469941  0.6150542972242412  1.0000
  C   C30       1.0  0.3380819721593447  0.15434846431878865  0.38494570276767853  1.0000
  C   C31       1.0  0.784668142600114  0.871410394281424  0.6974065097061082  1.0000
  C   C32       1.0  0.21533185730141557  0.1285896053843589  0.3025934902858117  1.0000
  C   C33       1.0  0.7798763706895877  0.9594606343240628  0.7681319808545307  1.0000
  C   C34       1.0  0.22012362921194184  0.04053936534172018  0.23186801913738905  1.0000
  C   C35       1.0  0.5941742328146454  0.3316477316450291  0.7031690706003084  1.0000
  C   C36       1.0  0.405825767086884  0.6683522680207539  0.2968309293916114  1.0000
  C   C37       1.0  0.747182137807431  0.3743457941022984  0.7596906691328195  1.0000
  C   C38       1.0  0.25281786209409846  0.6256542055634845  0.2403093308591004  1.0000
  C   C39       1.0  0.8635911862053177  0.44867242801267876  0.7177031839382166  1.0000
  C   C40       1.0  0.13640881389541468  0.5513275725311472  0.28229681605309603  1.0000
  C   C41       1.0  0.8311183816519085  0.484039722118609  0.6199393665322075  1.0000
  C   C42       1.0  0.1688816184488238  0.5159602784252171  0.3800606334591052  1.0000
  C   C43       1.0  0.6784225955088831  0.4432541032393525  0.5639266047826516  1.0000
  C   C44       1.0  0.32157740439264654  0.5567458964264305  0.4360733952092682  1.0000
  C   C45       1.0  0.5616566581687445  0.36741225895936486  0.6045804439861051  1.0000
  C   C46       1.0  0.43834334173278505  0.6325877407064182  0.3954195560058146  1.0000
  N   N1        1.0  0.3897034576079229  0.1359121128497221  0.04446629434615745  1.0000
  N   N2        1.0  0.6102965424928094  0.8640878876941038  0.9555337056451552  1.0000
  N   N3        1.0  0.32761703043786194  0.10371717340056168  0.8477433162185893  1.0000
  N   N4        1.0  0.6723829694636676  0.8962828262652212  0.15225668377333051  1.0000
  N   N5        1.0  0.5755883426320882  0.272647436111235  0.9405610598039588  1.0000
  N   N6        1.0  0.42441165746864407  0.7273525644325912  0.05943894018735393  1.0000
  N   N7        1.0  0.6968157876062927  0.23300738322970643  0.12835415417780993  1.0000
  N   N8        1.0  0.3031842124944397  0.7669926173141196  0.8716458458135027  1.0000
  N   N9        1.0  0.4846493937376676  0.37116754569996113  0.09871685467112301  1.0000
  N   N10       1.0  0.5153506063630647  0.6288324548438647  0.9012831453201896  1.0000
  N   N11       1.0  0.08129172037505696  0.13512416450652412  0.9354686748198113  1.0000
  N   N12       1.0  0.9187082795264727  0.8648758351592589  0.06453132517210834  1.0000
  N   N13       1.0  0.6494612354356901  0.10849916041815583  0.8328431249494022  1.0000
  N   N14       1.0  0.35053876446583954  0.8915008392476271  0.16715687504251764  1.0000
  N   N15       1.0  0.474392836406374  0.2579804164308061  0.7431422011523979  1.0000
  N   N16       1.0  0.5256071634951556  0.7420195832349767  0.25685779883952187  1.0000
  O   O1        1.0  0.17834364612529063  0.20938084522801895  0.6123657698920418  1.0000
  O   O2        1.0  0.8216563539754416  0.7906191553158071  0.38763423009927067  1.0000
  O   O3        1.0  0.19565844450976036  0.9486709805204117  0.9701574818845013  1.0000
  O   O4        1.0  0.8043415553917692  0.05132901914537128  0.029842518107418413  1.0000
  P   P1        1.0  0.538058271857398  0.253658524500659  0.05051808977444782  1.0000
  P   P2        1.0  0.46194172824333446  0.746341476043167  0.9494819102168649  1.0000
  P   P3        1.0  0.24727613823595215  0.07592046564875268  0.9458046622412363  1.0000
  P   P4        1.0  0.7527238616655775  0.9240795340170304  0.054195337750683595  1.0000
  P   P5        1.0  0.49953434348211545  0.1838915009175129  0.8468423766834173  1.0000
  P   P6        1.0  0.5004656564194141  0.81610849874827  0.15315762330850244  1.0000
