data_image0
_chemical_formula_structural       H34C24N8O20Cl2
_chemical_formula_sum              "H34 C24 N8 O20 Cl2"
_cell_length_a       4.8054702173252455
_cell_length_b       10.143999730934834
_cell_length_c       17.199743377887945
_cell_angle_alpha    89.9196987763615
_cell_angle_beta     95.87847168000062
_cell_angle_gamma    101.79581756745658

_space_group_name_H-M_alt    "P 1"
_space_group_IT_number       1

loop_
  _space_group_symop_operation_xyz
  'x, y, z'

loop_
  _atom_site_type_symbol
  _atom_site_label
  _atom_site_symmetry_multiplicity
  _atom_site_fract_x
  _atom_site_fract_y
  _atom_site_fract_z
  _atom_site_occupancy
  H   H1        1.0  0.2347592585185418  0.35607314044423327  0.9797507491090589  1.0000
  H   H2        1.0  0.7652407413417589  0.6439268593731928  0.0202492508021051  1.0000
  H   H3        1.0  0.3953377355988543  0.5561179720718561  0.8935189337076712  1.0000
  H   H4        1.0  0.6046622642614463  0.44388202774557006  0.10648106620349268  1.0000
  H   H5        1.0  0.7283256488300816  0.5298844743513202  0.7951664423005934  1.0000
  H   H6        1.0  0.27167435121836664  0.4701155254866983  0.20483355819508306  1.0000
  H   H7        1.0  0.6435429799231368  0.02128531075509339  0.9050864936026187  1.0000
  H   H8        1.0  0.356457019937164  0.9787146890623328  0.09491350630854521  1.0000
  H   H9        1.0  0.8607103827377044  0.09111044360171575  0.8304314155645393  1.0000
  H   H10       1.0  0.13928961712259635  0.9088895562157104  0.16956858434662472  1.0000
  H   H11       1.0  0.39736884593241  0.16109266901815872  0.9631144505735493  1.0000
  H   H12       1.0  0.6026311539278907  0.8389073307992675  0.03688554933761465  1.0000
  H   H13       1.0  0.36342586155393863  0.9734242215364893  0.7217697638823679  1.0000
  H   H14       1.0  0.636574138306362  0.02657577828093669  0.27823023602879593  1.0000
  H   H15       1.0  0.8788811071475734  0.048996227795960606  0.5290456921680878  1.0000
  H   H16       1.0  0.12111889312762988  0.9510037730284814  0.47095430774275904  1.0000
  H   H17       1.0  0.6959430704395064  0.8939543969432748  0.6367420311791695  1.0000
  H   H18       1.0  0.30405692942079415  0.10604560287415118  0.3632579687319944  1.0000
  H   H19       1.0  0.25179166859201607  0.3790851849568521  0.6451306144200407  1.0000
  H   H20       1.0  0.7482083333566938  0.6209148148703751  0.3548693855009552  1.0000
  H   H21       1.0  0.44360486247264463  0.4236921548664061  0.5622457435692566  1.0000
  H   H22       1.0  0.556395137387656  0.57630784495102  0.4377542563419073  1.0000
  H   H23       1.0  0.24255956164431022  0.18122294171017542  0.7036803959203617  1.0000
  H   H24       1.0  0.757440438630893  0.8187770591142666  0.29631960399048524  1.0000
  H   H25       1.0  0.9925413636172293  0.2978325253997408  0.40371672462365304  1.0000
  H   H26       1.0  0.007458636243071256  0.7021674744176853  0.5962832752875109  1.0000
  H   H27       1.0  0.2054778646359791  0.32042732240314453  0.29943025180601657  1.0000
  H   H28       1.0  0.7945221352243215  0.6795726774142816  0.7005697481051473  1.0000
  H   H29       1.0  0.05944981998237014  0.448658313730265  0.31006314794824824  1.0000
  H   H30       1.0  0.9405501798779304  0.551341686087161  0.6899368519629157  1.0000
  H   H31       1.0  0.6875455793973497  0.2974975703101413  0.27783459761800133  1.0000
  H   H32       1.0  0.312454420462951  0.7025024295072849  0.7221654022931626  1.0000
  H   H33       1.0  0.4539322534224306  0.23392943311047815  0.20923275200467314  1.0000
  H   H34       1.0  0.5460677466260176  0.7660705667275405  0.7907672484910032  1.0000
  C   C1        1.0  0.37615626781517597  0.35506425792370433  0.9342859860003379  1.0000
  C   C2        1.0  0.6238437320451247  0.6449357418937217  0.065714013910826  1.0000
  C   C3        1.0  0.4674058267429175  0.46210538239165605  0.8877390549509047  1.0000
  C   C4        1.0  0.5325941733055308  0.5378946174463627  0.11226094554477183  1.0000
  C   C5        1.0  0.944945655576404  0.31219344359742024  0.7639018854266736  1.0000
  C   C6        1.0  0.05505434428389669  0.6878065562200059  0.23609811448449033  1.0000
  C   C7        1.0  0.7442056493645058  0.32638921622334055  0.8232110012186459  1.0000
  C   C8        1.0  0.2557943504957948  0.6736107835940857  0.1767889986925181  1.0000
  C   C9        1.0  0.6533107224422552  0.44593555062208595  0.8322130633355942  1.0000
  C   C10       1.0  0.3466892774180454  0.5540644491953401  0.1677869365755697  1.0000
  C   C11       1.0  0.6429107767679508  0.21666636197018665  0.8725662457277291  1.0000
  C   C12       1.0  0.3570892230923497  0.7833336378472394  0.12743375418343486  1.0000
  C   C13       1.0  0.4559030189230151  0.03274205732839316  0.6744471286369298  1.0000
  C   C14       1.0  0.5440969809372856  0.9672579424890331  0.32555287127423416  1.0000
  C   C15       1.0  0.7621977252829708  0.2887261126235487  0.491809652283167  1.0000
  C   C16       1.0  0.2378022745773298  0.7112738871938774  0.5081903476279969  1.0000
  C   C17       1.0  0.7371774326866664  0.07776114860083518  0.5683509792912587  1.0000
  C   C18       1.0  0.2628225671736343  0.922238851216591  0.43164902061990534  1.0000
  C   C19       1.0  0.6369908441216351  0.9909014128213691  0.6272437808932608  1.0000
  C   C20       1.0  0.3630091557386656  0.009098586996057074  0.37275621901790307  1.0000
  C   C21       1.0  0.6605803995125067  0.20187743307013847  0.5568307392040492  1.0000
  C   C22       1.0  0.33941960076269667  0.7981225677543036  0.4431692607067976  1.0000
  C   C23       1.0  0.47475591197841427  0.2424409979903152  0.60792870309719  1.0000
  C   C24       1.0  0.525244088296789  0.7575590028341269  0.3920712968136568  1.0000
  N   N1        1.0  0.7135620190394829  0.09745118347130505  0.8687930915353439  1.0000
  N   N2        1.0  0.2864379808208178  0.9025488163461209  0.1312069083758201  1.0000
  N   N3        1.0  0.4638122679735794  0.23762606531073538  0.9260001189022888  1.0000
  N   N4        1.0  0.5361877318867213  0.7623739345066907  0.07399988100887504  1.0000
  N   N5        1.0  0.3868515227762915  0.35822204505201294  0.6057301317997694  1.0000
  N   N6        1.0  0.6131484770840092  0.6417779547654132  0.3942698681113945  1.0000
  N   N7        1.0  0.38202924534338106  0.15341145113712534  0.6643306985038557  1.0000
  N   N8        1.0  0.6179707549318223  0.8465885496873168  0.33566930140699114  1.0000
  O   O1        1.0  0.045483024863404144  0.2044572186113528  0.7654827237865608  1.0000
  O   O2        1.0  0.9545169751850441  0.7955427812266658  0.2345172767091157  1.0000
  O   O3        1.0  0.006632237705528682  0.4047793675307561  0.7152741828289936  1.0000
  O   O4        1.0  0.9933677623429196  0.5952206323072625  0.2847258176666828  1.0000
  O   O5        1.0  0.6793389923559657  0.39410971098491626  0.4754609955106836  1.0000
  O   O6        1.0  0.3206610076924825  0.6058902888531024  0.5245390049849927  1.0000
  O   O7        1.0  0.945345888798071  0.24065889047415603  0.4523429180587272  1.0000
  O   O8        1.0  0.05465411106222958  0.75934110934327  0.5476570818524368  1.0000
  O   O9        1.0  0.8748914627952923  0.3011615599513454  0.08285683121239615  1.0000
  O   O10       1.0  0.12510853706500824  0.6988384398660806  0.9171431686987678  1.0000
  O   O11       1.0  0.8952820047583053  0.12996024921078406  0.17827454442731736  1.0000
  O   O12       1.0  0.10471799551689807  0.8700397516136581  0.8217254554835295  1.0000
  O   O13       1.0  0.24215562069620875  0.17507024052274622  0.08687409476645763  1.0000
  O   O14       1.0  0.7578443795789946  0.8249297603016958  0.9131259051443893  1.0000
  O   O15       1.0  0.7590667308305638  0.06872103051289452  0.04370706796875599  1.0000
  O   O16       1.0  0.24093326902973686  0.9312789693045314  0.9562929319424078  1.0000
  O   O17       1.0  0.04326496046462648  0.350586218062906  0.3214217474834527  1.0000
  O   O18       1.0  0.956735039810577  0.649413782761536  0.6785782524273942  1.0000
  O   O19       1.0  0.4784226836609734  0.2731148704475554  0.26181679358687665  1.0000
  O   O20       1.0  0.5215773161993272  0.7268851293698707  0.7381832063242872  1.0000
  Cl  Cl1       1.0  0.9403278544670778  0.16912528349641637  0.09837487538993951  1.0000
  Cl  Cl2       1.0  0.05967214539322291  0.8308747163210097  0.9016251245212245  1.0000
