data_image0
_chemical_formula_structural       H100B4C104N4O8Cl16
_chemical_formula_sum              "H100 B4 C104 N4 O8 Cl16"
_cell_length_a       14.80111160584571
_cell_length_b       7.907154388081374
_cell_length_c       22.139420176652205
_cell_angle_alpha    90.0
_cell_angle_beta     97.72135117316087
_cell_angle_gamma    90.0

_space_group_name_H-M_alt    "P 1"
_space_group_IT_number       1

loop_
  _space_group_symop_operation_xyz
  'x, y, z'

loop_
  _atom_site_type_symbol
  _atom_site_label
  _atom_site_symmetry_multiplicity
  _atom_site_fract_x
  _atom_site_fract_y
  _atom_site_fract_z
  _atom_site_occupancy
  H   H1        1.0  0.6510215247678525  0.4794408688559662  0.7775124242527651  1.0000
  H   H2        1.0  0.3489784750447032  0.9794408683449495  0.7224875757224023  1.0000
  H   H3        1.0  0.34897847528161524  0.520559131386678  0.22248757550340537  1.0000
  H   H4        1.0  0.6510215250973309  0.02055913063301718  0.2775124244895836  1.0000
  H   H5        1.0  0.8130779665576153  0.40934520955842624  0.8096825400454001  1.0000
  H   H6        1.0  0.1869220339304341  0.909345210312087  0.6903174599291183  1.0000
  H   H7        1.0  0.18692203358441875  0.590654790684218  0.19031746016658574  1.0000
  H   H8        1.0  0.8130779661190336  0.09065478993055713  0.3096825398270522  1.0000
  H   H9        1.0  0.8955671593176997  0.21874031985603873  0.7470314690436627  1.0000
  H   H10       1.0  0.10443284049485602  0.7187403193450221  0.7529685309315047  1.0000
  H   H11       1.0  0.10443284073176808  0.7812596803866055  0.2529685307125077  1.0000
  H   H12       1.0  0.8955671596471781  0.2812596808976221  0.24703146928048123  1.0000
  H   H13       1.0  0.8160712664562784  0.10653972701858548  0.6478755062940128  1.0000
  H   H14       1.0  0.1839287333562773  0.6065397265075688  0.8521244936811546  1.0000
  H   H15       1.0  0.183928733010262  0.8934602732240587  0.3521244939186221  1.0000
  H   H16       1.0  0.8160712666931904  0.3934602724703979  0.14787550607501584  1.0000
  H   H17       1.0  0.6548307897830221  0.17554284030323591  0.6157750655632968  1.0000
  H   H18       1.0  0.3451692100295335  0.6755428397922193  0.8842249344118707  1.0000
  H   H19       1.0  0.34516920968351816  0.8244571599394083  0.38422493464933827  1.0000
  H   H20       1.0  0.6548307900199343  0.3244571604504249  0.11577506534429977  1.0000
  H   H21       1.0  0.32800199836123506  0.11591154352335731  0.5665741902801937  1.0000
  H   H22       1.0  0.6719980014513206  0.6159115430123407  0.9334258096949737  1.0000
  H   H23       1.0  0.6719980016882326  0.8840884567192869  0.43342580947597675  1.0000
  H   H24       1.0  0.32800199869071356  0.38408845723030355  0.06657419051701217  1.0000
  H   H25       1.0  0.1612131738306041  0.060248767966145  0.5566021639714043  1.0000
  H   H26       1.0  0.8387868259819515  0.5602487674551284  0.9433978360037631  1.0000
  H   H27       1.0  0.8387868262188636  0.9397512322764993  0.4433978357847662  1.0000
  H   H28       1.0  0.16121317348458877  0.4397512327875158  0.056602164208871694  1.0000
  H   H29       1.0  0.013128828149841943  0.09023059307851945  0.5948702783218801  1.0000
  H   H30       1.0  0.9868711716627138  0.5902305925675028  0.9051297216532873  1.0000
  H   H31       1.0  0.9868711719921921  0.9097694071641247  0.4051297218901058  1.0000
  H   H32       1.0  0.0131288277112602  0.40976940767514136  0.09487027810353221  1.0000
  H   H33       1.0  0.0021520323646483075  0.25482954057874696  0.6901534124696528  1.0000
  H   H34       1.0  0.9978479674479073  0.7548295413324079  0.8098465875055146  1.0000
  H   H35       1.0  0.9978479670093257  0.7451704596638973  0.3098465872871668  1.0000
  H   H36       1.0  0.0021520326941268063  0.2451704589102364  0.19015341270647115  1.0000
  H   H37       1.0  0.13928160392060945  0.3864638402161614  0.746646580783505  1.0000
  H   H38       1.0  0.8607183959845126  0.8864638409698222  0.7533534196474778  1.0000
  H   H39       1.0  0.8607183962214247  0.6135361600264828  0.25335341942848094  1.0000
  H   H40       1.0  0.13928160348202767  0.11353615927282196  0.24664658056515698  1.0000
  H   H41       1.0  0.30605527245474884  0.4498712337477369  0.7585673950051189  1.0000
  H   H42       1.0  0.6939447280333005  0.9498712332367203  0.7414326049693994  1.0000
  H   H43       1.0  0.6939447276872853  0.5501287664949073  0.24143260520686702  1.0000
  H   H44       1.0  0.30605527201616706  0.05012876574124643  0.258567394786771  1.0000
  H   H45       1.0  0.4973474851324264  0.7059740946014967  0.7021959797796706  1.0000
  H   H46       1.0  0.5026525147726957  0.20597409384783583  0.7978040206513122  1.0000
  H   H47       1.0  0.5026525150096077  0.29402590564114756  0.2978040204323152  1.0000
  H   H48       1.0  0.4973474853693385  0.7940259063948084  0.20219597956067367  1.0000
  H   H49       1.0  0.5021041521637758  0.9751643450420822  0.6429273946482394  1.0000
  H   H50       1.0  0.49789584764877987  0.4751643455530988  0.857072605326928  1.0000
  H   H51       1.0  0.49789584788569197  0.024835653935884553  0.35707260510793115  1.0000
  H   H52       1.0  0.5021041518177605  0.5248356546895454  0.14292739488570688  1.0000
  H   H53       1.0  0.5839966983986039  0.6784571726696367  0.4953894567615124  1.0000
  H   H54       1.0  0.41600330130484847  0.17845717191597577  0.004610543232125602  1.0000
  H   H55       1.0  0.41600330174343025  0.32154282757300756  0.5046105434504735  1.0000
  H   H56       1.0  0.5839966987446191  0.821542827061991  0.9953894565240449  1.0000
  H   H57       1.0  0.5771403710160538  0.4232951243553681  0.5609371474375685  1.0000
  H   H58       1.0  0.42285962879650185  0.9232951238443515  0.9390628525375987  1.0000
  H   H59       1.0  0.42285962912598035  0.5767048758872761  0.43906285277441726  1.0000
  H   H60       1.0  0.5771403712529659  0.07670487639829275  0.06093714721857167  1.0000
  H   H61       1.0  0.6043452379812274  0.012560355486381063  0.5044952632653007  1.0000
  H   H62       1.0  0.3956547618313284  0.5125603549753645  0.9955047367098668  1.0000
  H   H63       1.0  0.395654761485313  0.9874396447562631  0.4955047369473342  1.0000
  H   H64       1.0  0.6043452382181393  0.4874396452672798  0.004495263046303734  1.0000
  H   H65       1.0  0.5358455407440516  0.11635941640229566  0.5532918588111339  1.0000
  H   H66       1.0  0.4641544590685041  0.6163594158912791  0.9467081411640335  1.0000
  H   H67       1.0  0.4641544593979826  0.8836405838403486  0.4467081414008519  1.0000
  H   H68       1.0  0.5358455403054697  0.38364058435136517  0.05329185859278602  1.0000
  H   H69       1.0  0.7749998075718899  0.7394758813377333  0.6599450572517138  1.0000
  H   H70       1.0  0.2250001922406658  0.23947588184874996  0.8400549427234537  1.0000
  H   H71       1.0  0.2250001924775779  0.2605241189049109  0.3400549425044568  1.0000
  H   H72       1.0  0.7749998072258746  0.7605241183938942  0.1599450574891812  1.0000
  H   H73       1.0  0.7513217812189553  0.5696380251268778  0.606536959448624  1.0000
  H   H74       1.0  0.24867821859360034  0.0696380256378944  0.8934630405265435  1.0000
  H   H75       1.0  0.24867821892307887  0.43036197385108893  0.393463040763362  1.0000
  H   H76       1.0  0.7513217807803735  0.9303619746047498  0.10653695923027602  1.0000
  H   H77       1.0  0.9159273935363368  0.548794123274091  0.5943720951988111  1.0000
  H   H78       1.0  0.08407260627621886  0.04879412378510768  0.9056279047763562  1.0000
  H   H79       1.0  0.08407260660569735  0.4512058769685532  0.40562790501317464  1.0000
  H   H80       1.0  0.9159273937732487  0.9512058764575365  0.0943720949798142  1.0000
  H   H81       1.0  0.8965239788319799  0.5186980939922164  0.671910219147309  1.0000
  H   H82       1.0  0.10347602107314231  0.01869809323855565  0.8280897812836737  1.0000
  H   H83       1.0  0.10347602131005441  0.48130190625042774  0.3280897810646769  1.0000
  H   H84       1.0  0.8965239790688918  0.981301905739411  0.17191021892831207  1.0000
  H   H85       1.0  0.22663889150771868  0.7125079027787942  0.09793354048593368  1.0000
  H   H86       1.0  0.7733611088712274  0.21250790202513334  0.4020664595070552  1.0000
  H   H87       1.0  0.773361108541749  0.28749209746385  0.9020664592702368  1.0000
  H   H88       1.0  0.22663889127080664  0.7874920982175109  0.5979335407049307  1.0000
  H   H89       1.0  0.270207824881306  0.9182230893257829  0.11979913344987635  1.0000
  H   H90       1.0  0.7297921754976402  0.41822308857212204  0.3802008665431126  1.0000
  H   H91       1.0  0.7297921752607281  0.08177691091686136  0.8802008667621094  1.0000
  H   H92       1.0  0.2702078245518275  0.5817769116705221  0.6197991332130579  1.0000
  H   H93       1.0  0.15137128891167667  0.04881402222040789  0.040982052677327754  1.0000
  H   H94       1.0  0.8486287107917757  0.5488140217093912  0.45901794731631024  1.0000
  H   H95       1.0  0.8486287111377911  0.9511859780222363  0.9590179470788427  1.0000
  H   H96       1.0  0.1513712893502584  0.45118597726857546  0.5409820528956756  1.0000
  H   H97       1.0  0.10475895616758082  0.9346353577134612  0.09932517637945788  1.0000
  H   H98       1.0  0.8952410435358716  0.4346353582244778  0.40067482361418005  1.0000
  H   H99       1.0  0.8952410439744534  0.06536464252918303  0.9006748238325278  1.0000
  H   H100      1.0  0.10475895651359615  0.5653646420181664  0.5993251761419904  1.0000
  B   B1        1.0  0.5362958491071735  0.3821638710576928  0.6718558187266539  1.0000
  B   B2        1.0  0.4637041507053821  0.8821638705466761  0.8281441812485136  1.0000
  B   B3        1.0  0.4637041509422942  0.6178361291849515  0.3281441810295166  1.0000
  B   B4        1.0  0.536295849436652  0.11783612969596809  0.17185581896347235  1.0000
  C   C1        1.0  0.6393397736024484  0.3308376328079707  0.694534459165119  1.0000
  C   C2        1.0  0.3606602262101072  0.8308376322969541  0.8054655408100484  1.0000
  C   C3        1.0  0.3606602264470193  0.6691623674346735  0.30546554059105147  1.0000
  C   C4        1.0  0.6393397732564332  0.16916236794569017  0.19453445940258654  1.0000
  C   C5        1.0  0.6861909020486296  0.3958364218508021  0.7490191937388055  1.0000
  C   C6        1.0  0.313809097763926  0.895836422604463  0.7509808062363619  1.0000
  C   C7        1.0  0.31380909800083806  0.6041635771271646  0.250980806017365  1.0000
  C   C8        1.0  0.686190902378108  0.10416357763818127  0.24901919397562391  1.0000
  C   C9        1.0  0.7777863931607669  0.3564819645166882  0.7674623273551092  1.0000
  C   C10       1.0  0.2222136066517888  0.856481965270349  0.7325376726200582  1.0000
  C   C11       1.0  0.22221360688870082  0.643518035725956  0.23253767240106116  1.0000
  C   C12       1.0  0.7777863928147516  0.14351803497229518  0.2674623275925768  1.0000
  C   C13       1.0  0.8246673254981405  0.25137986340523494  0.7315723984377529  1.0000
  C   C14       1.0  0.1753326743144151  0.7513798641588958  0.7684276015374145  1.0000
  C   C15       1.0  0.17533267464389363  0.7486201368374092  0.268427601774233  1.0000
  C   C16       1.0  0.8246673257350526  0.24862013608374842  0.23157239821875591  1.0000
  C   C17       1.0  0.7800708751213965  0.187783083157971  0.6766338754441573  1.0000
  C   C18       1.0  0.21992912469115922  0.6877830826469543  0.82336612453101  1.0000
  C   C19       1.0  0.21992912502063772  0.8122169170846731  0.32336612476782844  1.0000
  C   C20       1.0  0.7800708746828148  0.31221691759568987  0.1766338752258095  1.0000
  C   C21       1.0  0.6884244104445393  0.2275634927164498  0.6586373950996484  1.0000
  C   C22       1.0  0.3115755893680163  0.7275634934701106  0.8413626048755192  1.0000
  C   C23       1.0  0.31157558960492837  0.7724365075261944  0.34136260465652224  1.0000
  C   C24       1.0  0.6884244107740178  0.27243650677253356  0.15863739533646665  1.0000
  C   C25       1.0  0.3978447896460037  0.2620849952194803  0.640677251061928  1.0000
  C   C26       1.0  0.6021552101665518  0.7620849947084637  0.8593227489132396  1.0000
  C   C27       1.0  0.6021552104960304  0.7379150050231639  0.35932274915005785  1.0000
  C   C28       1.0  0.3978447899754822  0.23791500553418052  0.14067725129874636  1.0000
  C   C29       1.0  0.32311467191292476  0.18681595268034595  0.6082066444514578  1.0000
  C   C30       1.0  0.676885327899631  0.6868159534340068  0.8917933555237098  1.0000
  C   C31       1.0  0.6768853281365429  0.8131840475622982  0.39179335530471276  1.0000
  C   C32       1.0  0.32311467224240326  0.3131840468086374  0.10820664468827615  1.0000
  C   C33       1.0  0.23720927163731595  0.20446131574677456  0.6299963406662005  1.0000
  C   C34       1.0  0.7627907288507335  0.7044613165004354  0.870003659308318  1.0000
  C   C35       1.0  0.7627907285047183  0.7955386844958696  0.3700036595457854  1.0000
  C   C36       1.0  0.23720927119873422  0.29553868374220876  0.1299963404478526  1.0000
  C   C37       1.0  0.15692436694300405  0.13102722789397717  0.5984590536931589  1.0000
  C   C38       1.0  0.8430756335450454  0.6310272273829606  0.9015409462813595  1.0000
  C   C39       1.0  0.8430756331064637  0.8689727723486671  0.40154094606301155  1.0000
  C   C40       1.0  0.15692436659698875  0.36897277285968366  0.0984590539306264  1.0000
  C   C41       1.0  0.0737401385862254  0.14880685544392216  0.6196034478672391  1.0000
  C   C42       1.0  0.9262598612263303  0.648806856197583  0.8803965521079286  1.0000
  C   C43       1.0  0.9262598615558088  0.8511931435340446  0.38039655234474684  1.0000
  C   C44       1.0  0.07374013882313744  0.3511931440450612  0.11960344764824207  1.0000
  C   C45       1.0  0.06770802038568942  0.24134815716720268  0.6734368684716521  1.0000
  C   C46       1.0  0.9322919794268661  0.741348156656186  0.8265631315035151  1.0000
  C   C47       1.0  0.9322919797563447  0.7586518430754415  0.3265631317403337  1.0000
  C   C48       1.0  0.0677080206226015  0.2586518423217807  0.1734368682526552  1.0000
  C   C49       1.0  0.1445618488312177  0.314889025532756  0.7051950289230392  1.0000
  C   C50       1.0  0.855438150981338  0.8148890250217393  0.7948049710521281  1.0000
  C   C51       1.0  0.8554381513108165  0.6851109747098881  0.2948049712889466  1.0000
  C   C52       1.0  0.1445618490681298  0.18511097395622733  0.20519502870404233  1.0000
  C   C53       1.0  0.23104438680207093  0.29920250495754613  0.6849668366234485  1.0000
  C   C54       1.0  0.7689556130104848  0.7992025044465294  0.8150331633517192  1.0000
  C   C55       1.0  0.768955612571903  0.700797495285098  0.31503316313337115  1.0000
  C   C56       1.0  0.2310443871315494  0.20079749579611475  0.18496683686026688  1.0000
  C   C57       1.0  0.3106322671554076  0.37526660848720267  0.7176857919652638  1.0000
  C   C58       1.0  0.689367732657148  0.875266607976186  0.7823142080099036  1.0000
  C   C59       1.0  0.6893677322185664  0.6247333917554415  0.28231420779155575  1.0000
  C   C60       1.0  0.31063226748488615  0.12473339226645815  0.21768579220208226  1.0000
  C   C61       1.0  0.39203092610337226  0.35503800257543533  0.6953081722683235  1.0000
  C   C62       1.0  0.6079690737091834  0.8550380020644187  0.8046918277068439  1.0000
  C   C63       1.0  0.6079690740386618  0.6449619976672089  0.3046918279436623  1.0000
  C   C64       1.0  0.39203092634028436  0.14496199817822547  0.19530817204932663  1.0000
  C   C65       1.0  0.5163612234859493  0.7072661093388589  0.6564188487407093  1.0000
  C   C66       1.0  0.48363877632660635  0.2072661098498756  0.8435811512344581  1.0000
  C   C67       1.0  0.48363877656351845  0.29273389090378527  0.3435811510154611  1.0000
  C   C68       1.0  0.5163612238154278  0.7927338903927686  0.15641884897752778  1.0000
  C   C69       1.0  0.5188928812214942  0.8551862500867119  0.623036538718967  1.0000
  C   C70       1.0  0.48110711859106137  0.35518624933305104  0.8769634612562004  1.0000
  C   C71       1.0  0.4811071188279734  0.14481375015593229  0.37696346103720346  1.0000
  C   C72       1.0  0.5188928815509728  0.6448137509095931  0.12303653895578545  1.0000
  C   C73       1.0  0.5428222930837432  0.8489045718037042  0.5641099863934084  1.0000
  C   C74       1.0  0.4571777067288124  0.3489045723147208  0.935890013581759  1.0000
  C   C75       1.0  0.4571777069657245  0.15109542843894003  0.4358900133627621  1.0000
  C   C76       1.0  0.5428222934132217  0.6510954279279234  0.06410998663022682  1.0000
  C   C77       1.0  0.564482342623508  0.6909820678644591  0.5409237873590034  1.0000
  C   C78       1.0  0.43551765718904767  0.1909820683754757  0.959076212616164  1.0000
  C   C79       1.0  0.43551765742595966  0.3090179323781851  0.4590762123971672  1.0000
  C   C80       1.0  0.5644823429529865  0.8090179318671685  0.04092378759582171  1.0000
  C   C81       1.0  0.5611042673483296  0.5487481282192141  0.5765165861933493  1.0000
  C   C82       1.0  0.4388957332322862  0.04874812873023077  0.9234834142369842  1.0000
  C   C83       1.0  0.4388957327937045  0.4512518707587526  0.4234834140186365  1.0000
  C   C84       1.0  0.5611042669097479  0.9512518715124135  0.07651658597500154  1.0000
  C   C85       1.0  0.541186397702444  0.0034870471280491005  0.5253295136791836  1.0000
  C   C86       1.0  0.45881360211011163  0.50348704788171  0.974670486295984  1.0000
  C   C87       1.0  0.45881360243959013  0.9965129518499176  0.4746704865328024  1.0000
  C   C88       1.0  0.5411863979393561  0.49651295236093423  0.02532951346018656  1.0000
  C   C89       1.0  0.7972262808700707  0.6758255887927156  0.6205067851106901  1.0000
  C   C90       1.0  0.202773718942485  0.17582558930373224  0.8794932148644773  1.0000
  C   C91       1.0  0.20277371859646964  0.3241744114499286  0.3794932151019447  1.0000
  C   C92       1.0  0.7972262811069828  0.824174410938912  0.12050678489169321  1.0000
  C   C93       1.0  0.8934208557683015  0.6097406390935367  0.6342565559691418  1.0000
  C   C94       1.0  0.1065791440442542  0.10974063960455326  0.8657434440060258  1.0000
  C   C95       1.0  0.10657914428116623  0.3902593611491076  0.3657434437870288  1.0000
  C   C96       1.0  0.8934208554222862  0.890259360638091  0.13425655620660917  1.0000
  C   C97       1.0  0.2341952711003806  0.8426103555082669  0.08249385367807806  1.0000
  C   C98       1.0  0.7658047292785656  0.3426103560192836  0.4175061463149108  1.0000
  C   C99       1.0  0.7658047290416535  0.1573896447343773  0.9175061465339077  1.0000
  C   C100      1.0  0.23419527077090213  0.6573896442233607  0.5824938534412597  1.0000
  C   C101      1.0  0.14350940620237018  0.9234190306193952  0.06053520194361013  1.0000
  C   C102      1.0  0.8564905935010823  0.4234190298657344  0.4394647980500278  1.0000
  C   C103      1.0  0.8564905939396639  0.07658096962324902  0.9394647982683757  1.0000
  C   C104      1.0  0.1435094065483855  0.5765809703769098  0.5605352017061427  1.0000
  N   N1        1.0  0.5369445359570185  0.5569897821444529  0.6331661316011995  1.0000
  N   N2        1.0  0.46305546385553714  0.056989781390792096  0.8668338683739679  1.0000
  N   N3        1.0  0.46305546418501564  0.44301021809819124  0.3668338686107863  1.0000
  N   N4        1.0  0.5369445361939306  0.9430102175871746  0.1331661313822026  1.0000
  O   O1        1.0  0.4761408187879027  0.4128182857944732  0.719326393288671  1.0000
  O   O2        1.0  0.523859181024653  0.9128182852834565  0.7806736066864964  1.0000
  O   O3        1.0  0.5238591806786377  0.587181714448171  0.280673606923964  1.0000
  O   O4        1.0  0.4761408190248148  0.08718171495918761  0.219326393069674  1.0000
  O   O5        1.0  0.4854676988094802  0.2596142087593793  0.6283211737932849  1.0000
  O   O6        1.0  0.5145323010956419  0.7596142082483627  0.871678826637698  1.0000
  O   O7        1.0  0.5145323013325539  0.7403857914832649  0.3716788264187009  1.0000
  O   O8        1.0  0.4854676990463923  0.24038579199428153  0.12832117357428796  1.0000
  Cl  Cl1       1.0  0.7852105782447983  0.8254512343705144  0.5590378278891164  1.0000
  Cl  Cl2       1.0  0.21478942156775735  0.325451234881531  0.9409621720860512  1.0000
  Cl  Cl3       1.0  0.2147894211291756  0.17454876587212984  0.4409621718677032  1.0000
  Cl  Cl4       1.0  0.7852105785742768  0.6745487653611133  0.05903782812593477  1.0000
  Cl  Cl5       1.0  0.9736579129536717  0.7746428549861981  0.6575826816471311  1.0000
  Cl  Cl6       1.0  0.026342086858884003  0.2746428554972147  0.8424173183280363  1.0000
  Cl  Cl7       1.0  0.026342087095796076  0.22535714399176868  0.34241731810903947  1.0000
  Cl  Cl8       1.0  0.9736579126076563  0.7253571447454296  0.15758268188459848  1.0000
  Cl  Cl9       1.0  0.30727591468349646  0.8325603392698357  0.023836148835791295  1.0000
  Cl  Cl10      1.0  0.692724085019956  0.3325603385161749  0.4761638511578467  1.0000
  Cl  Cl11      1.0  0.6927240854585377  0.16743966097280844  0.9761638513761945  1.0000
  Cl  Cl12      1.0  0.30727591435401796  0.6674396617264693  0.5238361485989729  1.0000
  Cl  Cl13      1.0  0.07567370691524457  0.7996657646562354  0.0035628207162703715  1.0000
  Cl  Cl14      1.0  0.9243262927882078  0.2996657651672521  0.4964371792773676  1.0000
  Cl  Cl15      1.0  0.9243262932267897  0.20033423558640878  0.9964371794957155  1.0000
  Cl  Cl16      1.0  0.07567370735382631  0.7003342350753922  0.5035628209346182  1.0000
