data_image0
_chemical_formula_structural       H48C68N4O8
_chemical_formula_sum              "H48 C68 N4 O8"
_cell_length_a       13.200066028858949
_cell_length_b       7.274911378198313
_cell_length_c       13.962710265571454
_cell_angle_alpha    90.0
_cell_angle_beta     105.09365775527985
_cell_angle_gamma    90.0

_space_group_name_H-M_alt    "P 1"
_space_group_IT_number       1

loop_
  _space_group_symop_operation_xyz
  'x, y, z'

loop_
  _atom_site_type_symbol
  _atom_site_label
  _atom_site_symmetry_multiplicity
  _atom_site_fract_x
  _atom_site_fract_y
  _atom_site_fract_z
  _atom_site_occupancy
  H   H1        1.0  0.78370736348215  0.0039733473711618915  0.01188001500043416  1.0000
  H   H2        1.0  0.7162926366641815  0.5039733474949908  0.4881199843648927  1.0000
  H   H3        1.0  0.21629263660772666  0.9960266528764957  0.9881199845662387  1.0000
  H   H4        1.0  0.28370736342569514  0.49602665275266694  0.5118800152017802  1.0000
  H   H5        1.0  0.03128342846744374  0.837471764708818  0.013284423423368816  1.0000
  H   H6        1.0  0.46871657157989244  0.3374717645849892  0.4867155767186479  1.0000
  H   H7        1.0  0.9687165716272285  0.16252823553883966  0.9867155768606647  1.0000
  H   H8        1.0  0.5312834285147798  0.6625282356626685  0.5132844235653855  1.0000
  H   H9        1.0  0.8231202797677292  0.37735852401268455  0.9941026936593849  1.0000
  H   H10       1.0  0.6768797195896529  0.8773585227619262  0.5058973065778875  1.0000
  H   H11       1.0  0.17687971954231682  0.6226414762349731  0.005897306435870741  1.0000
  H   H12       1.0  0.32312028050501934  0.12264147611114426  0.49410269370614596  1.0000
  H   H13       1.0  0.42170898882415125  0.2484494347816548  0.14452728115408356  1.0000
  H   H14       1.0  0.07829101122318487  0.7484494349054835  0.35547271898793315  1.0000
  H   H15       1.0  0.578291011270521  0.7515505654660029  0.8554727191299497  1.0000
  H   H16       1.0  0.9217089888666918  0.25155056534217407  0.6445272805787399  1.0000
  H   H17       1.0  0.5187043189745487  0.10259127860122984  0.30355001713107005  1.0000
  H   H18       1.0  0.9812956811765786  0.6025912787250586  0.19644998295161734  1.0000
  H   H19       1.0  0.4812956811201236  0.8974087202718406  0.6964499831529634  1.0000
  H   H20       1.0  0.018704318918093762  0.397408721522599  0.803550017332416  1.0000
  H   H21       1.0  0.6951307512784013  0.9657670320294692  0.32038805920467617  1.0000
  H   H22       1.0  0.8048692488727258  0.4657670319056404  0.1796119408780112  1.0000
  H   H23       1.0  0.3048692488162709  0.0342329682181884  0.6796119410793573  1.0000
  H   H24       1.0  0.19513075122194648  0.5342329683420172  0.8203880594060223  1.0000
  H   H25       1.0  0.775493713031891  0.9671401745298627  0.1776767552230617  1.0000
  H   H26       1.0  0.72450628633461  0.4671401744060339  0.3223232446708478  1.0000
  H   H27       1.0  0.22450628706278142  0.03285982571779495  0.8223232450609718  1.0000
  H   H28       1.0  0.2754937129706404  0.5328598258416237  0.6776767547070471  1.0000
  H   H29       1.0  0.7680140618484225  0.12329035411866841  0.8493789178540131  1.0000
  H   H30       1.0  0.7319859382935859  0.6232903542424972  0.6506210825720371  1.0000
  H   H31       1.0  0.2319859382462498  0.8767096461289892  0.15062108243002037  1.0000
  H   H32       1.0  0.2680140618010864  0.37670964600516044  0.34937891771199636  1.0000
  H   H33       1.0  0.6824600070773768  0.2698300842375553  0.6887389038793241  1.0000
  H   H34       1.0  0.8175399930646317  0.7698300843613841  0.811261096546726  1.0000
  H   H35       1.0  0.3175399930172955  0.7301699160101024  0.3112610964047092  1.0000
  H   H36       1.0  0.18246000703004062  0.23016991588627356  0.18873890373730742  1.0000
  H   H37       1.0  0.5079657162895042  0.42359607008205064  0.66276605692668  1.0000
  H   H38       1.0  0.9920342838477088  0.9235960702058794  0.8372339427820098  1.0000
  H   H39       1.0  0.49203428380516806  0.576403930165607  0.3372339433573535  1.0000
  H   H40       1.0  0.007965716242167997  0.07640393004177819  0.1627660567846632  1.0000
  H   H41       1.0  0.41728306691091105  0.4249992844264332  0.7979150002232509  1.0000
  H   H42       1.0  0.08271693312251073  0.924999284550262  0.702084999544768  1.0000
  H   H43       1.0  0.5827169331837613  0.5750007158212244  0.20208500006078253  1.0000
  H   H44       1.0  0.9172830669673658  0.0750007156973956  0.29791500002190485  1.0000
  H   H45       1.0  0.4150315529161524  0.3346556423073493  0.9709063278099651  1.0000
  H   H46       1.0  0.08496844711726938  0.8346556424311782  0.5290936719580538  1.0000
  H   H47       1.0  0.5849684471785198  0.6653443565657211  0.029093672474068324  1.0000
  H   H48       1.0  0.9150315529726073  0.16534435781647952  0.47090632760861906  1.0000
  C   C1        1.0  0.8290374320976451  0.7423008486651  0.0070266840043321736  1.0000
  C   C2        1.0  0.6709625680486865  0.2423008485412712  0.49297331536099465  1.0000
  C   C3        1.0  0.17096256799223158  0.2576991515825576  0.9929733155623408  1.0000
  C   C4        1.0  0.3290374320411902  0.7576991517063864  0.5070266842056782  1.0000
  C   C5        1.0  0.9183592242387258  0.6189609296814793  0.003816623974579399  1.0000
  C   C6        1.0  0.5816407759124013  0.11896092955765056  0.496183376108108  1.0000
  C   C7        1.0  0.08164077585594645  0.38103907056617825  0.9961833763094541  1.0000
  C   C8        1.0  0.4183592241774753  0.8810390706900071  0.5038166234585649  1.0000
  C   C9        1.0  0.0180337534556923  0.6898629452779558  0.0076687097104420985  1.0000
  C   C10       1.0  0.4819662458070175  0.1898629451541269  0.49233129024279676  1.0000
  C   C11       1.0  0.9819662458543538  0.31013705496970195  0.9923312903848135  1.0000
  C   C12       1.0  0.5180337535030284  0.8101370550935307  0.5076687098524588  1.0000
  C   C13       1.0  0.9009371477542562  0.429013976631142  0.9963721260802856  1.0000
  C   C14       1.0  0.5990628523877523  0.9290139767549709  0.5036278743457645  1.0000
  C   C15       1.0  0.0990628523404161  0.5709860236165156  0.003627874203747778  1.0000
  C   C16       1.0  0.40093714770692  0.07098602349268682  0.4963721259382689  1.0000
  C   C17       1.0  0.49961635707518043  0.1897290933517643  0.15368796130567103  1.0000
  C   C18       1.0  0.0003836429721557504  0.6897290934755932  0.3463120388363457  1.0000
  C   C19       1.0  0.5003836430194919  0.8102709068958933  0.8463120389783623  1.0000
  C   C20       1.0  0.9996163571225165  0.31027090677206454  0.6536879614476878  1.0000
  C   C21       1.0  0.5535312028308014  0.10919766560740429  0.24106492433017354  1.0000
  C   C22       1.0  0.9464687973203258  0.6091976657312331  0.25893507575251384  1.0000
  C   C23       1.0  0.44646879726387095  0.8908023332656662  0.7589350759538599  1.0000
  C   C24       1.0  0.05353120276955087  0.3908023345164245  0.741064923814159  1.0000
  C   C25       1.0  0.654167289055907  0.029914536230941226  0.25038348821431455  1.0000
  C   C26       1.0  0.8458327110952201  0.52991453635477  0.24961651186837275  1.0000
  C   C27       1.0  0.3458327110339696  0.9700854640167164  0.7496165113523583  1.0000
  C   C28       1.0  0.15416728899945215  0.4700854638928876  0.7503834884156606  1.0000
  C   C29       1.0  0.6996813415102748  0.03177417675392317  0.1722541712645185  1.0000
  C   C30       1.0  0.8003186586408523  0.531774176877752  0.3277458288181688  1.0000
  C   C31       1.0  0.3003186585796018  0.9682258234937344  0.8277458283021544  1.0000
  C   C32       1.0  0.19968134145381997  0.46822582336990565  0.6722541714658645  1.0000
  C   C33       1.0  0.6920066703304117  0.1905937554312023  0.8378615435521838  1.0000
  C   C34       1.0  0.8079933298068009  0.6905937555550311  0.6621384561565058  1.0000
  C   C35       1.0  0.3079933297594649  0.8094062434418681  0.16213845601448915  1.0000
  C   C36       1.0  0.19200667028307564  0.3094062446926265  0.33786154341016705  1.0000
  C   C37       1.0  0.6438718313035812  0.272380412212079  0.7489178133700117  1.0000
  C   C38       1.0  0.8561281688336317  0.7723804123359078  0.7510821863386778  1.0000
  C   C39       1.0  0.35612816879109105  0.7276195866609915  0.2510821869140217  1.0000
  C   C40       1.0  0.14387183125624506  0.22761958653716266  0.24891781322799503  1.0000
  C   C41       1.0  0.544407380515603  0.3594008454639798  0.7338946225241472  1.0000
  C   C42       1.0  0.9555926196264054  0.8594008455878086  0.7661053779019029  1.0000
  C   C43       1.0  0.4555926195790692  0.6405991547836779  0.2661053777598862  1.0000
  C   C44       1.0  0.04440738046826693  0.140599154659849  0.2338946223821305  1.0000
  C   C45       1.0  0.49409408160952883  0.3612154118983642  0.8085181773234993  1.0000
  C   C46       1.0  0.0059059184238929785  0.861215412022193  0.6914818224445195  1.0000
  C   C47       1.0  0.5059059184803478  0.6387845883492934  0.19148182224317356  1.0000
  C   C48       1.0  0.994094080886153  0.1387845882254646  0.30851817765073597  1.0000
  C   C49       1.0  0.4934865420071772  0.27733525057726155  0.9805073516897859  1.0000
  C   C50       1.0  0.006513457241618327  0.7773352493265031  0.5194926478894553  1.0000
  C   C51       1.0  0.5065134572980732  0.7226647496703962  0.01949264768810923  1.0000
  C   C52       1.0  0.9934865420684277  0.22266474954656731  0.48050735220580026  1.0000
  C   C53       1.0  0.5446649649854403  0.196953111249425  0.07141418878068329  1.0000
  C   C54       1.0  0.9553350351608912  0.6969531113732539  0.42858581058464357  1.0000
  C   C55       1.0  0.4553350351044364  0.8030468889982326  0.9285858107859896  1.0000
  C   C56       1.0  0.0446649649289854  0.30304688887440384  0.5714141889820293  1.0000
  C   C57       1.0  0.6465451258699308  0.11608006559787673  0.08108718617151828  1.0000
  C   C58       1.0  0.8534548742811963  0.6160800657217055  0.4189128139111691  1.0000
  C   C59       1.0  0.35345487421994587  0.8839199346497809  0.9189128133951546  1.0000
  C   C60       1.0  0.14654512581347592  0.3839199345259521  0.5810871863728643  1.0000
  C   C61       1.0  0.6427266216676795  0.19376746282084722  0.9171912837456825  1.0000
  C   C62       1.0  0.8572733784743292  0.6937674629446761  0.5828087166803677  1.0000
  C   C63       1.0  0.35727337842699286  0.8062325360522232  0.08280871653835095  1.0000
  C   C64       1.0  0.14272662162034325  0.3062325373029816  0.41719128360366575  1.0000
  C   C65       1.0  0.5414134706200935  0.2795700173193997  0.9021375500116728  1.0000
  C   C66       1.0  0.9585865295171193  0.7795700174432285  0.5978624496970169  1.0000
  C   C67       1.0  0.4585865294697832  0.7204299815536708  0.0978624495550001  1.0000
  C   C68       1.0  0.04141347057755299  0.22042998280442913  0.40213755058701656  1.0000
  N   N1        1.0  0.6919062595587757  0.11622446048399838  0.004794591984190468  1.0000
  N   N2        1.0  0.808093739807725  0.6162244606078272  0.49520540790971906  1.0000
  N   N3        1.0  0.30809374053589655  0.8837755397636593  0.9952054082998429  1.0000
  N   N4        1.0  0.1919062595023209  0.3837755396398304  0.5047945921855365  1.0000
  O   O1        1.0  0.8537967706268093  0.9194081071619165  0.014364485559393068  1.0000
  O   O2        1.0  0.646203229524318  0.41940810703808773  0.4856355145232943  1.0000
  O   O3        1.0  0.1462032294630675  0.08059189308574112  0.9856355140072799  1.0000
  O   O4        1.0  0.35379677057035436  0.5805918932095699  0.5143644857607391  1.0000
  O   O5        1.0  0.7403877266299613  0.6810143055277981  0.0022790082461670398  1.0000
  O   O6        1.0  0.7596122735211659  0.1810143054039692  0.49772099183652035  1.0000
  O   O7        1.0  0.2596122734599154  0.3189856947198596  0.9977209913205057  1.0000
  O   O8        1.0  0.24038772657350638  0.8189856948436884  0.502279008447513  1.0000
