data_image0
_chemical_formula_structural       H44C60N4O8
_chemical_formula_sum              "H44 C60 N4 O8"
_cell_length_a       3.917323862614559
_cell_length_b       15.737904377426354
_cell_length_c       17.768565667784127
_cell_angle_alpha    90.0
_cell_angle_beta     93.36033665376952
_cell_angle_gamma    90.0

_space_group_name_H-M_alt    "P 1"
_space_group_IT_number       1

loop_
  _space_group_symop_operation_xyz
  'x, y, z'

loop_
  _atom_site_type_symbol
  _atom_site_label
  _atom_site_symmetry_multiplicity
  _atom_site_fract_x
  _atom_site_fract_y
  _atom_site_fract_z
  _atom_site_occupancy
  H   H1        1.0  0.3853936121593397  0.3131497429269511  0.38870931147442356  1.0000
  H   H2        1.0  0.6146063880959399  0.8131497430087169  0.11129068851010206  1.0000
  H   H3        1.0  0.6146063873641677  0.6868502572365807  0.6112906885265007  1.0000
  H   H4        1.0  0.3853936114275676  0.18685025715481482  0.8887093114908223  1.0000
  H   H5        1.0  0.26800590408604374  0.5647780375860652  0.4565024616686409  1.0000
  H   H6        1.0  0.7319940961919216  0.06477803750429927  0.04349753887894727  1.0000
  H   H7        1.0  0.7319940954374637  0.43522196257746654  0.5434975383322833  1.0000
  H   H8        1.0  0.2680059033315859  0.9352219626592324  0.956502461121977  1.0000
  H   H9        1.0  0.7711191500715259  0.989870889820947  0.28478141447255906  1.0000
  H   H10       1.0  0.22888085018375373  0.4898708897391811  0.2152185855119666  1.0000
  H   H11       1.0  0.22888085200904076  0.010129110342584808  0.7152185855564162  1.0000
  H   H12       1.0  0.7711191493397538  0.5101291104243506  0.7847814144889577  1.0000
  H   H13       1.0  0.6440577744303851  0.9756990309348356  0.4200777809166586  1.0000
  H   H14       1.0  0.3559422258248945  0.47569903085306975  0.07992221906786702  1.0000
  H   H15       1.0  0.35594222509312234  0.024300969228696134  0.5799222190842657  1.0000
  H   H16       1.0  0.644057773698613  0.524300969310462  0.9200777809330573  1.0000
  H   H17       1.0  0.8243010806309997  0.0888194880637971  0.51146212404618  1.0000
  H   H18       1.0  0.17569891816073555  0.588819488145563  0.9885378759711431  1.0000
  H   H19       1.0  0.17569891889250766  0.9111805120997346  0.48853787595474435  1.0000
  H   H20       1.0  0.8243010813627719  0.41118051201796874  0.011462124029781301  1.0000
  H   H21       1.0  0.1276402018065423  0.21747823203890326  0.4702494754247251  1.0000
  H   H22       1.0  0.8723597984487373  0.7174782314852606  0.02975052455980049  1.0000
  H   H23       1.0  0.8723597977169651  0.7825217681246285  0.5297505245761991  1.0000
  H   H24       1.0  0.1276402010747702  0.2825217680428626  0.9702494754411238  1.0000
  H   H25       1.0  0.6697891040710104  0.3724076248936039  0.28125119067188914  1.0000
  H   H26       1.0  0.3302108961842692  0.8724076249753697  0.21874880931263646  1.0000
  H   H27       1.0  0.3302108954524971  0.6275923752699278  0.7187488093290351  1.0000
  H   H28       1.0  0.6697891033392382  0.12759237518816197  0.7812511906882879  1.0000
  H   H29       1.0  0.811883006178534  0.3908682409344996  0.1492159773993354  1.0000
  H   H30       1.0  0.18811699407674556  0.8908682410162654  0.3507840225851902  1.0000
  H   H31       1.0  0.18811699334497345  0.6091317592290322  0.8507840226015889  1.0000
  H   H32       1.0  0.811883005446762  0.10913175914726625  0.649215977415734  1.0000
  H   H33       1.0  0.621672612775137  0.28450692179972564  0.05066081095364431  1.0000
  H   H34       1.0  0.3783273849230835  0.7845069218814915  0.4493391890028303  1.0000
  H   H35       1.0  0.3783273867483705  0.7154930777283973  0.94933918904728  1.0000
  H   H36       1.0  0.621672614600424  0.21549307764663156  0.5506608109980938  1.0000
  H   H37       1.0  0.2923240046330259  0.15793329787701155  0.08524401182322733  1.0000
  H   H38       1.0  0.7076759956222537  0.6579332979587774  0.4147559881612983  1.0000
  H   H39       1.0  0.7076759948904815  0.8420667016511116  0.914755988177697  1.0000
  H   H40       1.0  0.2923240039012538  0.3420667015693457  0.5852440118396259  1.0000
  H   H41       1.0  0.028769643170622916  0.07123221701664237  0.1847109227340241  1.0000
  H   H42       1.0  0.9712303570846567  0.5712322170984083  0.3152890772505015  1.0000
  H   H43       1.0  0.9712303589099437  0.9287677831468893  0.8152890772949511  1.0000
  H   H44       1.0  0.028769642438850787  0.4287677830651235  0.6847109227504227  1.0000
  C   C1        1.0  0.31679371328061845  0.4350965081362239  0.41372622769442613  1.0000
  C   C2        1.0  0.6832062869746611  0.9350965082179898  0.08627377229009947  1.0000
  C   C3        1.0  0.6832062862428889  0.5649034920273077  0.5862737723064981  1.0000
  C   C4        1.0  0.31679371254884636  0.0649034919455419  0.9137262277108247  1.0000
  C   C5        1.0  0.3934069696562317  0.504182914046755  0.4692462722476252  1.0000
  C   C6        1.0  0.6065930305990479  0.004182913964989114  0.030753727736900386  1.0000
  C   C7        1.0  0.6065930298672758  0.4958170861167767  0.530753727753299  1.0000
  C   C8        1.0  0.3934069689244596  0.9958170861985426  0.9692462722640239  1.0000
  C   C9        1.0  0.8508628620883041  0.038246283975607205  0.32611696690028025  1.0000
  C   C10       1.0  0.14913713816697546  0.5382462840573731  0.1738830330842454  1.0000
  C   C11       1.0  0.14913713743520332  0.9617537161879245  0.6738830331006441  1.0000
  C   C12       1.0  0.8508628639135912  0.4617537161061587  0.8261169669447298  1.0000
  C   C13       1.0  0.7820078013632396  0.03086659242235399  0.40066937172262646  1.0000
  C   C14       1.0  0.21799219889203994  0.5308665918687112  0.0993306282618991  1.0000
  C   C15       1.0  0.2179921981602678  0.9691334077411777  0.5993306282782978  1.0000
  C   C16       1.0  0.7820078006314675  0.46913340765941186  0.9006693717390252  1.0000
  C   C17       1.0  0.8836586216372387  0.0959282648943687  0.4527240239472144  1.0000
  C   C18       1.0  0.11634137606098167  0.5959282649761346  0.04727597600926024  1.0000
  C   C19       1.0  0.11634137788626873  0.9040717352691631  0.5472759760537098  1.0000
  C   C20       1.0  0.8836586234625259  0.40407173518739714  0.952724023991664  1.0000
  C   C21       1.0  0.053497251307419925  0.16720059716300775  0.430397250482169  1.0000
  C   C22       1.0  0.9465027463908003  0.6672005972447737  0.06960274947430568  1.0000
  C   C23       1.0  0.9465027482160875  0.832799403000524  0.5696027495187552  1.0000
  C   C24       1.0  0.053497253132706986  0.3327994029187581  0.9303972505266185  1.0000
  C   C25       1.0  0.5798527226232891  0.32670413968043316  0.2384684718061111  1.0000
  C   C26       1.0  0.4201472776319904  0.826704139762199  0.2615315281784145  1.0000
  C   C27       1.0  0.4201472769002183  0.6732958604830985  0.7615315281948131  1.0000
  C   C28       1.0  0.5798527244485763  0.17329586040133269  0.7384684718505607  1.0000
  C   C29       1.0  0.658646271385459  0.3363391315042173  0.16453106184604316  1.0000
  C   C30       1.0  0.3413537263127615  0.8363391315859832  0.3354689381104315  1.0000
  C   C31       1.0  0.34135372813804865  0.6636608680239057  0.8354689381548811  1.0000
  C   C32       1.0  0.6586462732107459  0.1636608679421399  0.6645310618904928  1.0000
  C   C33       1.0  0.5530145915674768  0.2757534075645268  0.10856624325794699  1.0000
  C   C34       1.0  0.4469854086878028  0.7757534076462926  0.3914337567265786  1.0000
  C   C35       1.0  0.4469854105130898  0.7242465919635963  0.8914337567710282  1.0000
  C   C36       1.0  0.5530145908357046  0.22424659251723902  0.6085662432743456  1.0000
  C   C37       1.0  0.3712531577551777  0.20524523739216088  0.1275644569191739  1.0000
  C   C38       1.0  0.6287468425001019  0.7052452374739268  0.37243554306535176  1.0000
  C   C39       1.0  0.6287468417683298  0.7947547621359622  0.8724355430817503  1.0000
  C   C40       1.0  0.37125315702340556  0.294754762689605  0.6275644569355725  1.0000
  C   C41       1.0  0.1066937531375219  0.12063875433906286  0.22545502737937226  1.0000
  C   C42       1.0  0.8933062471404434  0.6206387544208287  0.274544973168216  1.0000
  C   C43       1.0  0.8933062463859855  0.8793612458244688  0.774544972621552  1.0000
  C   C44       1.0  0.10669375238306408  0.37936124574270297  0.7254550268327083  1.0000
  C   C45       1.0  0.029757096258131086  0.11060997755818561  0.30073737954624413  1.0000
  C   C46       1.0  0.9702429039971484  0.6106099776399514  0.19926262043828144  1.0000
  C   C47       1.0  0.9702429058224354  0.8893900226053462  0.6992626204827311  1.0000
  C   C48       1.0  0.02975709552635896  0.3893900225235803  0.8007373795626428  1.0000
  C   C49       1.0  0.1352212112384378  0.1761963482239347  0.3537680196922695  1.0000
  C   C50       1.0  0.8647787890168418  0.6761963483057006  0.14623198029225606  1.0000
  C   C51       1.0  0.8647787882850697  0.8238036519395969  0.6462319803086547  1.0000
  C   C52       1.0  0.1352212105066657  0.32380365185783117  0.8537680197086682  1.0000
  C   C53       1.0  0.3884098819859325  0.25461618039486983  0.2599257529194079  1.0000
  C   C54       1.0  0.611590118269347  0.7546161804766357  0.24007424706511774  1.0000
  C   C55       1.0  0.611590120094634  0.7453838197686619  0.7400742471095673  1.0000
  C   C56       1.0  0.38840988123147474  0.24538381968689602  0.759925752372744  1.0000
  C   C57       1.0  0.28553957902132365  0.19234324134933037  0.20343622642094042  1.0000
  C   C58       1.0  0.7144604212339559  0.6923432414310963  0.2965637735635852  1.0000
  C   C59       1.0  0.714460423059243  0.8076567588142014  0.7965637736080348  1.0000
  C   C60       1.0  0.2855395782895515  0.3076567587324355  0.7034362264373392  1.0000
  N   N1        1.0  0.3105725622325666  0.24518857323436277  0.33253107283739264  1.0000
  N   N2        1.0  0.6894274380227131  0.7451885733161286  0.167468927147133  1.0000
  N   N3        1.0  0.6894274398480001  0.754811426929169  0.6674689271915827  1.0000
  N   N4        1.0  0.3105725615007944  0.25481142684740304  0.8325310728537912  1.0000
  O   O1        1.0  0.4421165806257737  0.35975178360601234  0.4333049218266917  1.0000
  O   O2        1.0  0.5578834196295059  0.8597517836877783  0.0666950781578339  1.0000
  O   O3        1.0  0.5578834188977337  0.6402482165575193  0.5666950781742325  1.0000
  O   O4        1.0  0.4421165824510608  0.14024821647575353  0.9333049218711411  1.0000
  O   O5        1.0  0.14816234745078072  0.4500216750686724  0.3538300588555313  1.0000
  O   O6        1.0  0.8518376528044989  0.9500216751504382  0.14616994112899429  1.0000
  O   O7        1.0  0.8518376520727268  0.5499783244594507  0.646169941145393  1.0000
  O   O8        1.0  0.14816234671900858  0.04997832437768481  0.85383005887193  1.0000
