data_image0
_chemical_formula_structural       H14C14N4O4
_chemical_formula_sum              "H14 C14 N4 O4"
_cell_length_a       4.593572459694567
_cell_length_b       8.822616686232143
_cell_length_c       8.865942444567064
_cell_angle_alpha    107.57783731491129
_cell_angle_beta     94.59832399672719
_cell_angle_gamma    97.89294411267834

_space_group_name_H-M_alt    "P 1"
_space_group_IT_number       1

loop_
  _space_group_symop_operation_xyz
  'x, y, z'

loop_
  _atom_site_type_symbol
  _atom_site_label
  _atom_site_symmetry_multiplicity
  _atom_site_fract_x
  _atom_site_fract_y
  _atom_site_fract_z
  _atom_site_occupancy
  H   H1        1.0  0.11214018875818493  0.4369580122054472  0.0931035691714552  1.0000
  H   H2        1.0  0.8878598108084296  0.5630419885717558  0.906896430979743  1.0000
  H   H3        1.0  0.7109056938198012  0.3589307925274962  0.24795089621801106  1.0000
  H   H4        1.0  0.2890943079255832  0.6410692082343636  0.7520491040021003  1.0000
  H   H5        1.0  0.9320276814773352  0.8430898529274381  0.5796899343345755  1.0000
  H   H6        1.0  0.06797231768470752  0.1569101466433398  0.4203100654344412  1.0000
  H   H7        1.0  0.30609708861625157  0.9033466872453322  0.4013697747347573  1.0000
  H   H8        1.0  0.6939029105457911  0.09665331232544576  0.5986302250342594  1.0000
  H   H9        1.0  0.44443284430292684  0.7126250677941292  0.13981920867053524  1.0000
  H   H10       1.0  0.5555671548591159  0.2873749317766487  0.8601807910984816  1.0000
  H   H11       1.0  0.8142629462887635  0.8609627320643797  0.861162492855725  1.0000
  H   H12       1.0  0.185737055052049  0.1390372674910551  0.138837506982205  1.0000
  H   H13       1.0  0.10730042133444657  0.8400864833115713  0.9891053361688565  1.0000
  H   H14       1.0  0.892699580006366  0.15991351624386355  0.010894663669073396  1.0000
  C   C1        1.0  0.055464366716495704  0.523544336904632  0.19866918237825534  1.0000
  C   C2        1.0  0.9445356328501191  0.47645566387257093  0.8013308177729428  1.0000
  C   C3        1.0  0.837165601349234  0.4805852951533664  0.2846705790916449  1.0000
  C   C4        1.0  0.16283439999157842  0.5194147044020683  0.715329420746285  1.0000
  C   C5        1.0  0.7879292284892199  0.5977412544912953  0.42291187445482326  1.0000
  C   C6        1.0  0.21207077067282298  0.4022587450794826  0.5770881253141935  1.0000
  C   C7        1.0  0.9584383764093011  0.7522982512963093  0.46952518576108926  1.0000
  C   C8        1.0  0.04156162493151133  0.24770174825912541  0.5304748140768408  1.0000
  C   C9        1.0  0.16791741098463414  0.7852198391182246  0.373702412969544  1.0000
  C   C10       1.0  0.8320825903561782  0.21478016043721024  0.626297586868386  1.0000
  C   C11       1.0  0.7176321406723308  0.8851393642935153  0.09639427303952232  1.0000
  C   C12       1.0  0.28236785889428384  0.11486063648368773  0.9036057271116759  1.0000
  C   C13       1.0  0.9326222002492328  0.9123201204149471  0.9828767984952885  1.0000
  C   C14       1.0  0.06737780109157943  0.08767987914048754  0.01712320134264132  1.0000
  N   N1        1.0  0.21456274786476126  0.6732724387274208  0.2413793183581648  1.0000
  N   N2        1.0  0.7854372512972814  0.3267275608433571  0.7586206814108521  1.0000
  N   N3        1.0  0.5801788960210175  0.5690412336283237  0.5257691211066244  1.0000
  N   N4        1.0  0.4198211031410253  0.4309587659424543  0.47423087866239244  1.0000
  O   O1        1.0  0.5971884283413449  0.7302615032433242  0.05936117124743358  1.0000
  O   O2        1.0  0.40281157299946746  0.2697384963121105  0.9406388285904965  1.0000
  O   O3        1.0  0.6593716946635424  0.9932001282660615  0.20997214277886378  1.0000
  O   O4        1.0  0.34062830708184194  0.00679987249579843  0.7900278574412476  1.0000
