data_image0
_chemical_formula_structural       H52C48N28O12
_chemical_formula_sum              "H52 C48 N28 O12"
_cell_length_a       10.202126701215903
_cell_length_b       8.958348513831199
_cell_length_c       14.727617674207146
_cell_angle_alpha    90.0
_cell_angle_beta     93.49305987407483
_cell_angle_gamma    90.0

_space_group_name_H-M_alt    "P 1"
_space_group_IT_number       1

loop_
  _space_group_symop_operation_xyz
  'x, y, z'

loop_
  _atom_site_type_symbol
  _atom_site_label
  _atom_site_symmetry_multiplicity
  _atom_site_fract_x
  _atom_site_fract_y
  _atom_site_fract_z
  _atom_site_occupancy
  H   H1        1.0  0.8493856882568066  0.7681999209312825  0.6882430383264186  1.0000
  H   H2        1.0  0.6506143112713982  0.268199920586978  0.8117569623009874  1.0000
  H   H3        1.0  0.15061431142796822  0.23180007864104937  0.31175696186549107  1.0000
  H   H4        1.0  0.3493856884133767  0.7318000789853539  0.18824303789092234  1.0000
  H   H5        1.0  0.8728673341786938  0.6268144727044727  0.7717791061408977  1.0000
  H   H6        1.0  0.627132666329436  0.1268144734764453  0.7282208938474302  1.0000
  H   H7        1.0  0.12713266648809105  0.3731855268678593  0.22822089409101678  1.0000
  H   H8        1.0  0.37286733433526387  0.8731855272121638  0.27177910570540154  1.0000
  H   H9        1.0  0.732763676218115  0.744598529483566  0.771590624602044  1.0000
  H   H10       1.0  0.7672363233080048  0.2445985302555386  0.7284093753462791  1.0000
  H   H11       1.0  0.26723632346665993  0.2554014700887659  0.2284093755898657  1.0000
  H   H12       1.0  0.2327636763767701  0.7554014704330706  0.2715906248456306  1.0000
  H   H13       1.0  0.4309654652683021  0.39095014048545784  0.6503284147425242  1.0000
  H   H14       1.0  0.0690345347273621  0.8909501408297624  0.8496715852052761  1.0000
  H   H15       1.0  0.5690345353984828  0.609049859086874  0.3496715854893904  1.0000
  H   H16       1.0  0.9309654649574128  0.10904985874256953  0.15032841498663352  1.0000
  H   H17       1.0  0.8212577382980822  0.970259389504678  0.32916358294148135  1.0000
  H   H18       1.0  0.6787422610737184  0.4702593902766507  0.17083641681545472  1.0000
  H   H19       1.0  0.1787422613866927  0.02974061006765384  0.6708364172504283  1.0000
  H   H20       1.0  0.3212577386089715  0.5297406104119584  0.829163582697372  1.0000
  H   H21       1.0  0.8778563284646344  0.5445769733637676  0.5742268820525871  1.0000
  H   H22       1.0  0.6221436720434953  0.04457697301946302  0.9257731179357409  1.0000
  H   H23       1.0  0.12214367122014042  0.4554230273248416  0.4257731181393226  1.0000
  H   H24       1.0  0.37785632862328955  0.955423026552869  0.07422688229617369  1.0000
  H   H25       1.0  0.7595605357483975  0.36287932591380473  0.47959007718245766  1.0000
  H   H26       1.0  0.740439464607498  0.8628793262581094  0.02040992329356624  1.0000
  H   H27       1.0  0.24043946491838733  0.6371206736585272  0.5204099230494569  1.0000
  H   H28       1.0  0.2595605350772769  0.13712067443049983  0.9795900768983433  1.0000
  H   H29       1.0  0.5529954101513262  0.5732650490289652  0.7464465124167312  1.0000
  H   H30       1.0  0.9470045903568034  0.0732650498009378  0.7535534875715968  1.0000
  H   H31       1.0  0.4470045905154586  0.42673495054336674  0.2535534878151834  1.0000
  H   H32       1.0  0.052995409327971345  0.9267349508876713  0.24644651262031292  1.0000
  H   H33       1.0  0.6908462115261462  0.31203248072836376  0.3557286689832627  1.0000
  H   H34       1.0  0.8091537878477394  0.8120324810726683  0.14427133145275625  1.0000
  H   H35       1.0  0.3091537881586287  0.6879675188439682  0.644271331208647  1.0000
  H   H36       1.0  0.1908462118370355  0.18796751849966362  0.8557286687391534  1.0000
  H   H37       1.0  0.16526823185109288  0.9131546899933594  0.4629056087417274  1.0000
  H   H38       1.0  0.33473176799025206  0.4131546896490548  0.03709439101468593  1.0000
  H   H39       1.0  0.8347317678336822  0.08684530957897264  0.5370943914501822  1.0000
  H   H40       1.0  0.6652682316924378  0.5868453099232772  0.9629056084981408  1.0000
  H   H41       1.0  0.9480493658128438  0.22975565494267206  0.4208225821842677  1.0000
  H   H42       1.0  0.5519506345430517  0.7297556541706994  0.07917741829175617  1.0000
  H   H43       1.0  0.051950633871931065  0.770244345745937  0.579177418007642  1.0000
  H   H44       1.0  0.44804936612373314  0.27024434540163256  0.9208225819401585  1.0000
  H   H45       1.0  0.10481600191438065  0.17617956898676415  0.4721484595654004  1.0000
  H   H46       1.0  0.3951839979269643  0.6761795693310687  0.027851540191012974  1.0000
  H   H47       1.0  0.8951839977683093  0.8238204305855679  0.5278515399474264  1.0000
  H   H48       1.0  0.6048160017578106  0.3238204313575404  0.9721484600008967  1.0000
  H   H49       1.0  0.048502478618692106  0.7896782916045074  0.4060659033795583  1.0000
  H   H50       1.0  0.45149752122473785  0.28967829126020295  0.09393409705593798  1.0000
  H   H51       1.0  0.9514975210660828  0.21032170796782448  0.5939340968123513  1.0000
  H   H52       1.0  0.5485024784600371  0.710321708312129  0.9060659031359717  1.0000
  C   C1        1.0  0.5124817970505422  0.25347664655981106  0.4985061681805404  1.0000
  C   C2        1.0  0.9875182023212584  0.7534766469041158  0.0014938315763956547  1.0000
  C   C3        1.0  0.4875182026342327  0.7465233530125208  0.5014938320113693  1.0000
  C   C4        1.0  0.012481797363516551  0.2465233526682163  0.998506168615514  1.0000
  C   C5        1.0  0.542051477313776  0.18302526603743324  0.4144457456835044  1.0000
  C   C6        1.0  0.9579485220580245  0.6830252663817379  0.08555425407343172  1.0000
  C   C7        1.0  0.4579485223709989  0.8169747335348987  0.5855542545084054  1.0000
  C   C8        1.0  0.04205147762466533  0.3169747331905941  0.914445745439395  1.0000
  C   C9        1.0  0.7457453527343284  0.005395142857567854  0.2781316605784622  1.0000
  C   C10       1.0  0.7542546466395572  0.5053951420855952  0.22186833985755677  1.0000
  C   C11       1.0  0.2542546469504465  0.9946048578310412  0.7218683396134474  1.0000
  C   C12       1.0  0.24574535304521772  0.49460485748673677  0.7781316603343529  1.0000
  C   C13       1.0  0.583816925588951  0.36192387302125595  0.5562646862145302  1.0000
  C   C14       1.0  0.9161830739371687  0.8619238722492834  0.9437353137337929  1.0000
  C   C15       1.0  0.41618307409582384  0.6380761276673532  0.4437353139773795  1.0000
  C   C16       1.0  0.08381692574552106  0.1380761273230486  0.05626468577903392  1.0000
  C   C17       1.0  0.528517530237654  0.4242204792694236  0.6330095637061163  1.0000
  C   C18       1.0  0.9714824692884659  0.9242204796137282  0.8669904362422068  1.0000
  C   C19       1.0  0.4714824694471209  0.5757795203029084  0.36699043648579344  1.0000
  C   C20       1.0  0.028517530396309033  0.07577951995860378  0.13300956394970284  1.0000
  C   C21       1.0  0.597679185543135  0.5283849922440282  0.6869186387930492  1.0000
  C   C22       1.0  0.9023208149670798  0.02838499189972365  0.8130813618743616  1.0000
  C   C23       1.0  0.40232081414163984  0.47161500732830375  0.31308136139886045  1.0000
  C   C24       1.0  0.09767918569970505  0.9716150076726083  0.18691863835755299  1.0000
  C   C25       1.0  0.7240927760840143  0.5751872560042145  0.6676847897944159  1.0000
  C   C26       1.0  0.7759072234421055  0.07518725565990986  0.8323152101539072  1.0000
  C   C27       1.0  0.2759072236007606  0.4248127446843947  0.3323152103974939  1.0000
  C   C28       1.0  0.22409277624266935  0.9248127439124222  0.1676847900380024  1.0000
  C   C29       1.0  0.7791930995514565  0.5127289637044533  0.5913987650824644  1.0000
  C   C30       1.0  0.7208069009566732  0.01272896336014871  0.9086012349058636  1.0000
  C   C31       1.0  0.22080690111324322  0.4872710369841559  0.4086012344703672  1.0000
  C   C32       1.0  0.2791930997101117  0.9872710362121832  0.09139876532605098  1.0000
  C   C33       1.0  0.7110245316362992  0.4084763586000569  0.53691689487539  1.0000
  C   C34       1.0  0.7889754688718306  0.9084763589443614  0.963083105112938  1.0000
  C   C35       1.0  0.28897546903048565  0.591523640972275  0.4630831053565246  1.0000
  C   C36       1.0  0.21102453081085928  0.09152364174424765  0.03691689439988881  1.0000
  C   C37       1.0  0.7982923063301056  0.684953343858667  0.7277491137665375  1.0000
  C   C38       1.0  0.7017076931960142  0.18495334463063962  0.7722508861817856  1.0000
  C   C39       1.0  0.20170769335466932  0.31504665571366497  0.2722508864253722  1.0000
  C   C40       1.0  0.2982923064866756  0.8150466560579696  0.22774911333104123  1.0000
  C   C41       1.0  0.060065091454561535  0.8870734608874292  0.4509154493670541  1.0000
  C   C42       1.0  0.43993490838886845  0.38707346054312464  0.04908455106844219  1.0000
  C   C43       1.0  0.9399349082302133  0.11292653980117993  0.5490845508248555  1.0000
  C   C44       1.0  0.5600650922779165  0.6129265401454844  0.9509154491634725  1.0000
  C   C45       1.0  0.0015057731902882602  0.14167915638026443  0.4596233460704364  1.0000
  C   C46       1.0  0.4984942266510567  0.641679156724569  0.04037665368597693  1.0000
  C   C47       1.0  0.9984942264944866  0.8583208431920675  0.5403766541214733  1.0000
  C   C48       1.0  0.5015057730316332  0.358320842847763  0.9596233458268498  1.0000
  N   N1        1.0  0.39708941398541864  0.19521371794142192  0.5197177984645267  1.0000
  N   N2        1.0  0.10291058601024555  0.6952137171694494  0.9802822014832737  1.0000
  N   N3        1.0  0.6029105856993563  0.8047862827471872  0.4802822017273829  1.0000
  N   N4        1.0  0.8970894146544541  0.30478628240288264  0.01971779806955802  1.0000
  N   N5        1.0  0.4521679872390107  0.08585499423387273  0.3856736783389671  1.0000
  N   N6        1.0  0.04783201260233423  0.5858549945781772  0.1143263214174463  1.0000
  N   N7        1.0  0.5478320124457642  0.9141450053384592  0.6143263218529426  1.0000
  N   N8        1.0  0.9521679870824405  0.4141450061104318  0.8856736787744633  1.0000
  N   N9        1.0  0.6550478016855277  0.2039298758224694  0.3679033273733325  1.0000
  N   N10       1.0  0.8449521986703679  0.7039298761667739  0.13209667310269146  1.0000
  N   N11       1.0  0.34495219898125723  0.7960701237498625  0.6320966728585823  1.0000
  N   N12       1.0  0.15504780101440696  0.2960701245218352  0.8679033270892182  1.0000
  N   N13       1.0  0.6624491280745773  0.11894284290847558  0.29046896149863305  1.0000
  N   N14       1.0  0.8375508722792332  0.6189428432527802  0.20953103829830794  1.0000
  N   N15       1.0  0.3375508725922075  0.8810571566638564  0.7095310387332815  1.0000
  N   N16       1.0  0.16244912740345666  0.3810571563195518  0.7904689612145189  1.0000
  N   N17       1.0  0.5844710045108494  0.1397790182048274  0.21255823178234468  1.0000
  N   N18       1.0  0.9155289958429611  0.639779018549132  0.28744176801459637  1.0000
  N   N19       1.0  0.4155289961559354  0.8602209813675046  0.7874417684495699  1.0000
  N   N20       1.0  0.08447100384181384  0.3602209821394771  0.7125582321773134  1.0000
  N   N21       1.0  0.6210675168384909  0.04054864235736795  0.15573526841062024  1.0000
  N   N22       1.0  0.8789324835174046  0.5405486427016726  0.34426473206540364  1.0000
  N   N23       1.0  0.378932483828294  0.9594513572149641  0.8442647318212944  1.0000
  N   N24       1.0  0.12106751616737027  0.45945135798693665  0.6557352681265061  1.0000
  N   N25       1.0  0.7215279571802548  0.9553063956807404  0.19434231722840797  1.0000
  N   N26       1.0  0.7784720421915458  0.45530639533643574  0.3056576825285281  1.0000
  N   N27       1.0  0.2784720425045201  0.04469360389159161  0.8056576829635017  1.0000
  N   N28       1.0  0.22152795749114407  0.5446936042358962  0.6943423169842988  1.0000
  O   O1        1.0  0.322903234663267  0.21039632105068995  0.5819545152990385  1.0000
  O   O2        1.0  0.17709676533239724  0.7103963213949944  0.9180454846487619  1.0000
  O   O3        1.0  0.677096765021508  0.789603678521642  0.4180454848928712  1.0000
  O   O4        1.0  0.8229032343523777  0.28960367929361464  0.08195451554314784  1.0000
  O   O5        1.0  0.3575492410169204  0.08479043194482182  0.44739961872711903  1.0000
  O   O6        1.0  0.14245075882650954  0.5847904322891264  0.05260038170837725  1.0000
  O   O7        1.0  0.6424507586678545  0.9152095676275102  0.5526003814647907  1.0000
  O   O8        1.0  0.8575492408582654  0.41520956728320557  0.9473996184835325  1.0000
  O   O9        1.0  0.9954004375712375  0.009878801864357512  0.40363890666336444  1.0000
  O   O10       1.0  0.5045995627846579  0.5098788022086621  0.09636109381265943  1.0000
  O   O11       1.0  0.004599562113537274  0.9901211977079745  0.5963610935285452  1.0000
  O   O12       1.0  0.4954004378821269  0.4901211973636698  0.9036389064192552  1.0000
