data_image0
_chemical_formula_structural       H40C36N8O16Cl8
_chemical_formula_sum              "H40 C36 N8 O16 Cl8"
_cell_length_a       16.743448938678664
_cell_length_b       3.5615538145707917
_cell_length_c       20.801635335145995
_cell_angle_alpha    90.0
_cell_angle_beta     110.27942889266825
_cell_angle_gamma    90.0

_space_group_name_H-M_alt    "P 1"
_space_group_IT_number       1

loop_
  _space_group_symop_operation_xyz
  'x, y, z'

loop_
  _atom_site_type_symbol
  _atom_site_label
  _atom_site_symmetry_multiplicity
  _atom_site_fract_x
  _atom_site_fract_y
  _atom_site_fract_z
  _atom_site_occupancy
  H   H1        1.0  0.5879603544665907  0.8678446854726203  0.9356580240201835  1.0000
  H   H2        1.0  0.41203964566971946  0.3678446847104238  0.5643419755278042  1.0000
  H   H3        1.0  0.41203964553604555  0.1321553160517728  0.06434197567504764  1.0000
  H   H4        1.0  0.5879603543329167  0.6321553168139693  0.4356580241674269  1.0000
  H   H5        1.0  0.7267835224922274  0.6229798019400102  0.01666630650368185  1.0000
  H   H6        1.0  0.2732164773767349  0.12297980117781371  0.4833336933387926  1.0000
  H   H7        1.0  0.27321647773000945  0.3770201995843828  0.9833336937040478  1.0000
  H   H8        1.0  0.7267835226259013  0.8770201975388161  0.5166663063564384  1.0000
  H   H9        1.0  0.8584115523271879  0.6833104921912523  0.988063668249463  1.0000
  H   H10       1.0  0.14158844743107482  0.18331049142905576  0.511936331810093  1.0000
  H   H11       1.0  0.1415884478950491  0.31668950933314083  0.011936331958266795  1.0000
  H   H12       1.0  0.8584115519739132  0.8166895072875741  0.4880636678842077  1.0000
  H   H13       1.0  0.8457466271655639  0.9692707564538146  0.8734538810623368  1.0000
  H   H14       1.0  0.15425337259269858  0.46927075569161797  0.6265461189972191  1.0000
  H   H15       1.0  0.15425337223942404  0.030729245070578625  0.126546118631964  1.0000
  H   H16       1.0  0.8457466276295382  0.5307292458327751  0.3734538812105105  1.0000
  H   H17       1.0  0.7155055377799514  0.1725086442570129  0.7993627596721565  1.0000
  H   H18       1.0  0.28449446257595923  0.6725086450192095  0.7006372403883296  1.0000
  H   H19       1.0  0.2844944624422854  0.8274913572673802  0.2006372405355731  1.0000
  H   H20       1.0  0.7155055376462776  0.3274913565051837  0.2993627598194  1.0000
  H   H21       1.0  0.5774117523305045  0.3310688315802122  0.7728477243476582  1.0000
  H   H22       1.0  0.4225882480254063  0.8310688295346456  0.727152275712828  1.0000
  H   H23       1.0  0.4225882478917323  0.6689311699441809  0.22715227586007142  1.0000
  H   H24       1.0  0.5774117519772299  0.1689311691819843  0.2728477239824031  1.0000
  H   H25       1.0  0.5143493845405138  0.17942199199284298  0.821283957474119  1.0000
  H   H26       1.0  0.4856506152177487  0.6794219927550396  0.6787160425854368  1.0000
  H   H27       1.0  0.485650615084075  0.8205780095315501  0.17871604273268035  1.0000
  H   H28       1.0  0.5143493847848873  0.32057800876935355  0.3212839571097941  1.0000
  H   H29       1.0  0.7187382933902714  0.5857444302723266  0.6086545713002078  1.0000
  H   H30       1.0  0.2812617067460388  0.08574442951013005  0.8913454282477798  1.0000
  H   H31       1.0  0.2812617066123648  0.4142555684443033  0.3913454283950232  1.0000
  H   H32       1.0  0.7187382932565973  0.9142555692064999  0.10865457144745126  1.0000
  H   H33       1.0  0.0237698393983936  0.30893495291256673  0.7022736737309351  1.0000
  H   H34       1.0  0.9762301603598691  0.8089349508670001  0.7977263263286208  1.0000
  H   H35       1.0  0.9762301608238434  0.6910650486118264  0.2977263264767946  1.0000
  H   H36       1.0  0.023769839642767094  0.19106504784962983  0.20227367336661015  1.0000
  H   H37       1.0  0.8161286505163923  0.3087583277560335  0.7156379865238781  1.0000
  H   H38       1.0  0.18387134902226954  0.80875832851823  0.7843620130231791  1.0000
  H   H39       1.0  0.18387134888859563  0.6912416737683597  0.2843620131704226  1.0000
  H   H40       1.0  0.8161286509803667  0.19124167300616304  0.21563798667205192  1.0000
  C   C1        1.0  0.642568549273174  0.05204639874923208  0.8610532609213792  1.0000
  C   C2        1.0  0.357431450863136  0.5520463967036654  0.6389467386266083  1.0000
  C   C3        1.0  0.3574314507294621  0.947953602775161  0.1389467387738518  1.0000
  C   C4        1.0  0.6425685491395001  0.4479536020129645  0.3610532610686227  1.0000
  C   C5        1.0  0.6465340296148611  0.8873874815733688  0.9241422063968608  1.0000
  C   C6        1.0  0.35346597074104974  0.38738748361893555  0.5758577936636253  1.0000
  C   C7        1.0  0.35346597060737583  0.11261251714326102  0.07585779381086886  1.0000
  C   C8        1.0  0.6465340294811871  0.6126125179054576  0.4241422065441043  1.0000
  C   C9        1.0  0.7228875293005762  0.7546202921333337  0.9685542488366362  1.0000
  C   C10       1.0  0.27711247045768655  0.2546202941789004  0.5314457512229199  1.0000
  C   C11       1.0  0.27711247032401265  0.24537970658329614  0.031445751370163394  1.0000
  C   C12       1.0  0.7228875295449496  0.7453797073454927  0.4685542484723111  1.0000
  C   C13       1.0  0.7979284807582032  0.7829524514249266  0.9525257313809765  1.0000
  C   C14       1.0  0.20207151900005943  0.28295245066273006  0.5474742686785795  1.0000
  C   C15       1.0  0.20207151924443292  0.21704754729170325  0.04747426831425452  1.0000
  C   C16       1.0  0.7979284812221774  0.7170475480538998  0.45252573152915027  1.0000
  C   C17       1.0  0.7919023105166124  0.9383722762596406  0.8908453775547126  1.0000
  C   C18       1.0  0.2080976898392983  0.4383722754974441  0.6091546225057736  1.0000
  C   C19       1.0  0.2080976894860237  0.06162772245698922  0.10915462214051837  1.0000
  C   C20       1.0  0.7919023103829386  0.5616277232191857  0.3908453777019561  1.0000
  C   C21       1.0  0.6623065534563126  0.5322363605022321  0.6911420740113623  1.0000
  C   C22       1.0  0.33769344689959807  0.032236359740035574  0.8088579260491239  1.0000
  C   C23       1.0  0.3376934465463235  0.467763641022161  0.30885792568386866  1.0000
  C   C24       1.0  0.6623065533226388  0.9677636417843576  0.19114207415860582  1.0000
  C   C25       1.0  0.6656627587954834  0.6602496838260984  0.6252856790345828  1.0000
  C   C26       1.0  0.33433724096277934  0.16024968306390183  0.8747143210249734  1.0000
  C   C27       1.0  0.3343372406095047  0.3397503176982947  0.374714320659718  1.0000
  C   C28       1.0  0.6656627592594575  0.8397503156527281  0.12528567918275643  1.0000
  C   C29       1.0  0.8821829421790444  0.28117200304628315  0.6545036976852344  1.0000
  C   C30       1.0  0.11781705817686645  0.7811720038084796  0.8454963023752518  1.0000
  C   C31       1.0  0.11781705804319254  0.7188279956703467  0.3454963025224952  1.0000
  C   C32       1.0  0.8821829418257697  0.2188279977159134  0.1545036973199793  1.0000
  C   C33       1.0  0.9685018424316211  0.28724833408793776  0.6555103106912481  1.0000
  C   C34       1.0  0.03149815732664147  0.7872483348501343  0.8444896893683078  1.0000
  C   C35       1.0  0.031498157790615704  0.7127516646286921  0.34448968951648146  1.0000
  C   C36       1.0  0.9685018420783466  0.2127516638664955  0.15551031032599294  1.0000
  N   N1        1.0  0.7161349114359397  0.061890663872100994  0.8466498536810715  1.0000
  N   N2        1.0  0.283865088322323  0.5618906646342976  0.6533501463784844  1.0000
  N   N3        1.0  0.2838650887862971  0.9381093348445289  0.1533501465266581  1.0000
  N   N4        1.0  0.7161349113022658  0.4381093340823323  0.346649853828315  1.0000
  N   N5        1.0  0.572764550932571  0.1996225150638864  0.8157065653504255  1.0000
  N   N6        1.0  0.4272354494233399  0.6996225158260829  0.6842934347100608  1.0000
  N   N7        1.0  0.427235449289666  0.8003774836527435  0.18429343485730415  1.0000
  N   N8        1.0  0.5727645507988969  0.30037748569831013  0.31570656549766896  1.0000
  O   O1        1.0  0.7269272423095545  0.33215685388782046  0.7268983066285682  1.0000
  O   O2        1.0  0.27307275744870807  0.832156854650017  0.7731016934309877  1.0000
  O   O3        1.0  0.27307275731503416  0.6678431448288095  0.2731016935782311  1.0000
  O   O4        1.0  0.7269272427735288  0.16784314406661285  0.22689830677674208  1.0000
  O   O5        1.0  0.5988512334286896  0.6051448924294109  0.7086338132345127  1.0000
  O   O6        1.0  0.4011487669272212  0.10514489447497764  0.7913661868259736  1.0000
  O   O7        1.0  0.40114876657394655  0.3948551062872189  0.2913661864607183  1.0000
  O   O8        1.0  0.5988512332950158  0.8948551070494155  0.2086338133817561  1.0000
  O   O9        1.0  0.8178522990949293  0.2660005209311065  0.6015263603083255  1.0000
  O   O10       1.0  0.18214770126098154  0.7660005188855398  0.8984736397521608  1.0000
  O   O11       1.0  0.1821477011273076  0.7339994805932867  0.3984736398994041  1.0000
  O   O12       1.0  0.8178522987416547  0.2339994798310901  0.10152635994307034  1.0000
  O   O13       1.0  0.8783081843867145  0.2974902065680805  0.7183348549488547  1.0000
  O   O14       1.0  0.12169181596919633  0.7974902073302771  0.7816651451116315  1.0000
  O   O15       1.0  0.1216918158355224  0.7025097949563126  0.2816651452588749  1.0000
  O   O16       1.0  0.8783081840334398  0.20250979419411605  0.21833485458359952  1.0000
  Cl  Cl1       1.0  0.5946984699956098  0.9676076143792046  0.5771349649571602  1.0000
  Cl  Cl2       1.0  0.40530153014070014  0.46760761642477133  0.9228650345908274  1.0000
  Cl  Cl3       1.0  0.40530153000702634  0.03239238433742523  0.4228650347380709  1.0000
  Cl  Cl4       1.0  0.594698469861936  0.5323923850996217  0.07713496510440357  1.0000
  Cl  Cl5       1.0  0.9873411405043151  0.2745568481934737  0.58108831992157  1.0000
  Cl  Cl6       1.0  0.012658859253947503  0.7745568461479069  0.918911680137986  1.0000
  Cl  Cl7       1.0  0.012658859120273569  0.7254431533309194  0.41891168028522935  1.0000
  Cl  Cl8       1.0  0.9873411407486886  0.22544315256872288  0.08108831955724505  1.0000
