data_image0
_chemical_formula_structural       H14C20N8O14Cl2
_chemical_formula_sum              "H14 C20 N8 O14 Cl2"
_cell_length_a       7.217876583120599
_cell_length_b       9.348715723149787
_cell_length_c       9.521436264706292
_cell_angle_alpha    83.44981248188715
_cell_angle_beta     87.20240568474615
_cell_angle_gamma    88.55947776768505

_space_group_name_H-M_alt    "P 1"
_space_group_IT_number       1

loop_
  _space_group_symop_operation_xyz
  'x, y, z'

loop_
  _atom_site_type_symbol
  _atom_site_label
  _atom_site_symmetry_multiplicity
  _atom_site_fract_x
  _atom_site_fract_y
  _atom_site_fract_z
  _atom_site_occupancy
  H   H1        1.0  0.9387026866364678  0.6119981137848088  0.7577156514940739  1.0000
  H   H2        1.0  0.0612973135096981  0.38800188687407433  0.24228434823800132  1.0000
  H   H3        1.0  0.7028299481476776  0.1640332109143907  0.424859407083822  1.0000
  H   H4        1.0  0.29717005202738983  0.8359667886742348  0.575140592650565  1.0000
  H   H5        1.0  0.7403200129364047  0.9232321956719135  0.6767314442220577  1.0000
  H   H6        1.0  0.25967998718540874  0.07676780379730963  0.3232685565705891  1.0000
  H   H7        1.0  0.5521490673275704  0.9338577601270661  0.8020901822576688  1.0000
  H   H8        1.0  0.447850932847497  0.06614223946155927  0.1979098174767183  1.0000
  H   H9        1.0  0.6801572455713182  0.7680332176280472  0.7959865639759947  1.0000
  H   H10       1.0  0.319842754521594  0.23196678291143363  0.20401343681434025  1.0000
  H   H11       1.0  0.5481803534594403  0.38034639462206277  0.4665330668301687  1.0000
  H   H12       1.0  0.4518196466334717  0.619653605917418  0.5334669339601662  1.0000
  H   H13       1.0  0.9190335958542353  0.09985628859508977  0.96180475199076  1.0000
  H   H14       1.0  0.08096640432083224  0.9001437109935356  0.03819524774362715  1.0000
  C   C1        1.0  0.9173657170943254  0.41730567057337814  0.6570784458661019  1.0000
  C   C2        1.0  0.08263428169469378  0.5826943290187788  0.34292155387667367  1.0000
  C   C3        1.0  0.00300742918433145  0.5085403000277454  0.7401421819684052  1.0000
  C   C4        1.0  0.9969925709907361  0.4914596995608799  0.25985781776598194  1.0000
  C   C5        1.0  0.16711985122054318  0.46421348645218513  0.8018108125482699  1.0000
  C   C6        1.0  0.8328801489256228  0.5357865142066981  0.19818918718380554  1.0000
  C   C7        1.0  0.2539650502356806  0.33050311035905827  0.7816932146254378  1.0000
  C   C8        1.0  0.7460349499393869  0.6694968892295672  0.21830678510894938  1.0000
  C   C9        1.0  0.16970420732760644  0.24534965767478314  0.6943062656917741  1.0000
  C   C10       1.0  0.830295792847461  0.7546503419138423  0.305693734042613  1.0000
  C   C11       1.0  0.0006325748708467432  0.28339138916397416  0.6306668997219202  1.0000
  C   C12       1.0  0.9993674253042207  0.7166086104246512  0.36933310001246694  1.0000
  C   C13       1.0  0.7685953439112644  0.23198771810232832  0.492965569906791  1.0000
  C   C14       1.0  0.23140465626380305  0.7680122814862971  0.5070344298275962  1.0000
  C   C15       1.0  0.7402016541859111  0.45695486484880526  0.5951329816127702  1.0000
  C   C16       1.0  0.25979834596025486  0.5430451358100779  0.4048670181193052  1.0000
  C   C17       1.0  0.6900551925517109  0.8852494311869962  0.7851698179884969  1.0000
  C   C18       1.0  0.309944807594455  0.1147505694718869  0.2148301817435784  1.0000
  C   C19       1.0  0.8233709882481257  0.9317239557279338  0.8853991162299547  1.0000
  C   C20       1.0  0.17662901192694172  0.06827604386069158  0.1146008835044324  1.0000
  N   N1        1.0  0.25135807504478636  0.5594385253488413  0.8923133023992358  1.0000
  N   N2        1.0  0.7486419251013796  0.44056147531004203  0.10768669733283955  1.0000
  N   N3        1.0  0.2589969912859313  0.10813565039867418  0.6654583172128105  1.0000
  N   N4        1.0  0.7410030088602347  0.8918643502602089  0.3345416825192649  1.0000
  N   N5        1.0  0.9271028138890841  0.19128260412838877  0.5465728086340116  1.0000
  N   N6        1.0  0.07289718625708173  0.8087173965304945  0.45342719109806373  1.0000
  N   N7        1.0  0.6752892416535721  0.35665998951141825  0.5146018293325091  1.0000
  N   N8        1.0  0.32471075852149545  0.6433400100772072  0.485398170401878  1.0000
  O   O1        1.0  0.6524245036383216  0.57101869975749  0.6113289595485953  1.0000
  O   O2        1.0  0.347575496536746  0.4289812998311355  0.38867104018579185  1.0000
  O   O3        1.0  0.29859908973004623  0.6796125904272494  0.8364667742998355  1.0000
  O   O4        1.0  0.7014009104450213  0.3203874091613759  0.1635332254345518  1.0000
  O   O5        1.0  0.2662787579031727  0.5121237838372579  0.018047940630424666  1.0000
  O   O6        1.0  0.7337212408858464  0.48787621575489915  0.9819520591123507  1.0000
  O   O7        1.0  0.37319525336012116  0.11169997913835025  0.5643895908212416  1.0000
  O   O8        1.0  0.6268047468149462  0.8883000204502752  0.4356104089131455  1.0000
  O   O9        1.0  0.21328847266185222  0.9996160411527686  0.7444242488453627  1.0000
  O   O10       1.0  0.7867115275132152  0.00038395843585680437  0.2555757508890244  1.0000
  O   O11       1.0  0.8170040139668542  0.07124602043045664  0.8973484209611206  1.0000
  O   O12       1.0  0.18299598617931184  0.9287539802284265  0.10265157877095478  1.0000
  O   O13       1.0  0.9330401107066214  0.8453781763963434  0.9500416749694547  1.0000
  O   O14       1.0  0.06695988941519224  0.1546218230728798  0.049958325823191985  1.0000
  Cl  Cl1       1.0  0.4576287629621333  0.2752914159647749  0.8557324557800885  1.0000
  Cl  Cl2       1.0  0.542371237212934  0.7247085836238505  0.14426754395429872  1.0000
