data_image0
_chemical_formula_structural       H40C40O8
_chemical_formula_sum              "H40 C40 O8"
_cell_length_a       7.174481360227242
_cell_length_b       9.994606471285387
_cell_length_c       11.593748113068962
_cell_angle_alpha    107.86687231047054
_cell_angle_beta     93.8993865185561
_cell_angle_gamma    91.3310664493676

_space_group_name_H-M_alt    "P 1"
_space_group_IT_number       1

loop_
  _space_group_symop_operation_xyz
  'x, y, z'

loop_
  _atom_site_type_symbol
  _atom_site_label
  _atom_site_symmetry_multiplicity
  _atom_site_fract_x
  _atom_site_fract_y
  _atom_site_fract_z
  _atom_site_occupancy
  H   H1        1.0  0.9567419068548721  0.7524871515783723  0.6843851216058608  1.0000
  H   H2        1.0  0.04325809315059583  0.24751284832021855  0.31561487849046393  1.0000
  H   H3        1.0  0.12425097312461542  0.8856883224252554  0.8848975996768674  1.0000
  H   H4        1.0  0.8757490268808525  0.11431167747333536  0.11510240041945746  1.0000
  H   H5        1.0  0.02485662013457447  0.281870531044728  0.8103349562643107  1.0000
  H   H6        1.0  0.97514337993395  0.7181294699062267  0.1896650441166335  1.0000
  H   H7        1.0  0.8559977145644354  0.14955036147385706  0.611557175222751  1.0000
  H   H8        1.0  0.14400228544103252  0.8504496384247338  0.38844282487357384  1.0000
  H   H9        1.0  0.7258999212359537  0.9685723964669005  0.45637951226520257  1.0000
  H   H10       1.0  0.2741000788325707  0.031427604484054183  0.5436204881157417  1.0000
  H   H11       1.0  0.34950945998623856  0.04123927264551232  0.0691960967308726  1.0000
  H   H12       1.0  0.6504905400192295  0.9587607272530785  0.9308039033654523  1.0000
  H   H13       1.0  0.34084259452050036  0.7803424798088098  0.985113251558818  1.0000
  H   H14       1.0  0.6591574054849676  0.21965752008978118  0.014886748537506916  1.0000
  H   H15       1.0  0.48233616873811896  0.6376875426269558  0.10821498998650257  1.0000
  H   H16       1.0  0.5176638312673489  0.3623124572716352  0.8917850101098224  1.0000
  H   H17       1.0  0.6502046077374203  0.7601666975676  0.31066854365327184  1.0000
  H   H18       1.0  0.3497953922680477  0.23983330233099084  0.689331456443053  1.0000
  H   H19       1.0  0.4430887782293741  0.25398814062751973  0.2230841386976522  1.0000
  H   H20       1.0  0.5569112217760939  0.7460118592710712  0.7769158613986726  1.0000
  H   H21       1.0  0.44081650063439254  0.23682896551906946  0.3722309056593454  1.0000
  H   H22       1.0  0.5591834993710754  0.7631710343795214  0.6277690944369795  1.0000
  H   H23       1.0  0.6558317389545971  0.25037678000237484  0.3108792600943318  1.0000
  H   H24       1.0  0.34416826106317294  0.7496232199006546  0.6891207391411905  1.0000
  H   H25       1.0  0.2340218528659491  0.3287627769799839  0.04700651887919787  1.0000
  H   H26       1.0  0.7659781471395187  0.671237222918607  0.9529934812171269  1.0000
  H   H27       1.0  0.03775442293571048  0.6294525201331124  0.4761147295098822  1.0000
  H   H28       1.0  0.9622455770697574  0.37054747976547847  0.5238852705864426  1.0000
  H   H29       1.0  0.7125958180332491  0.5736110882199976  0.38771992124775995  1.0000
  H   H30       1.0  0.2874041819722188  0.42638891167859333  0.6122800788485651  1.0000
  H   H31       1.0  0.6483375944457652  0.4446347016633357  0.16533480968548425  1.0000
  H   H32       1.0  0.35166240555970263  0.5553652982352554  0.8346651904108406  1.0000
  H   H33       1.0  0.9167628240728083  0.37068769429784254  0.03695121872127908  1.0000
  H   H34       1.0  0.08323717593265965  0.6293123056007484  0.9630487813750457  1.0000
  H   H35       1.0  0.3583835697179853  0.6221776612960535  0.4641469032356582  1.0000
  H   H36       1.0  0.6416164302874826  0.37782233860253744  0.5358530968606666  1.0000
  H   H37       1.0  0.4351639856747946  0.4670599148190629  0.3587519926676776  1.0000
  H   H38       1.0  0.5648360143429754  0.5329400850839667  0.6412480065678448  1.0000
  H   H39       1.0  0.4348198169140201  0.6258617938832869  0.3228619993165778  1.0000
  H   H40       1.0  0.5651801830914479  0.374138206015304  0.6771380007797472  1.0000
  C   C1        1.0  0.8959007476909956  0.9418820041590994  0.6333025267881477  1.0000
  C   C2        1.0  0.10409925232677429  0.05811799574393025  0.3666974724473748  1.0000
  C   C3        1.0  0.9765611410027824  0.8669493643297708  0.7137002743334765  1.0000
  C   C4        1.0  0.02343885900268563  0.13305063556882005  0.2862997257628483  1.0000
  C   C5        1.0  0.06766608801025308  0.9386525186588313  0.8218827163248483  1.0000
  C   C6        1.0  0.9323339119952149  0.061347481239759895  0.17811728377147668  1.0000
  C   C7        1.0  0.0868216651531032  0.09289793358266853  0.8626273156742195  1.0000
  C   C8        1.0  0.9131783348523649  0.9071020663159225  0.13737268442210546  1.0000
  C   C9        1.0  0.009579150524463212  0.16724199541091783  0.78022957334257  1.0000
  C   C10       1.0  0.9904208494810047  0.832758004487673  0.2197704267537548  1.0000
  C   C11       1.0  0.9176229891546509  0.09538750376500876  0.6722999262870029  1.0000
  C   C12       1.0  0.08237701086311908  0.9046124961380207  0.3277000729485195  1.0000
  C   C13       1.0  0.5920937810934335  0.9677857185648113  0.30284741747845334  1.0000
  C   C14       1.0  0.4079062189120345  0.03221428133377965  0.6971525826178715  1.0000
  C   C15       1.0  0.5070174624081597  0.04992349026687527  0.23487505210560622  1.0000
  C   C16       1.0  0.49298253759730826  0.9500765096317156  0.7651249479907186  1.0000
  C   C17       1.0  0.41689833757652484  0.9794087510792169  0.12149276850755987  1.0000
  C   C18       1.0  0.5831016624289431  0.020591248819374092  0.878507231588765  1.0000
  C   C19       1.0  0.41005776811704986  0.8323983850206488  0.07489200321911083  1.0000
  C   C20       1.0  0.5899422318884181  0.1676016148779421  0.9251079968772139  1.0000
  C   C21       1.0  0.4910358251002367  0.7523244273882068  0.143258879240484  1.0000
  C   C22       1.0  0.5089641749052313  0.2476755725103841  0.8567411208558409  1.0000
  C   C23       1.0  0.5832577686347852  0.8195935004622049  0.2563359600011826  1.0000
  C   C24       1.0  0.4167422313706828  0.180406499436386  0.7436640400951422  1.0000
  C   C25       1.0  0.5114218582596454  0.20632318116190093  0.28724864342698647  1.0000
  C   C26       1.0  0.4885781418211811  0.7936768197934924  0.7127513560931553  1.0000
  C   C27       1.0  0.12628086059532223  0.45319150539497843  0.18616626802571762  1.0000
  C   C28       1.0  0.8737191394101458  0.5468084945036126  0.8138337320706074  1.0000
  C   C29       1.0  0.16241441170478943  0.5283933192946292  0.3108492404478619  1.0000
  C   C30       1.0  0.8375855883637352  0.4716066816563255  0.6891507599330824  1.0000
  C   C31       1.0  0.010246400563970914  0.5706879508798992  0.3800794187483704  1.0000
  C   C32       1.0  0.989753599453799  0.4293120490231304  0.6199205804871519  1.0000
  C   C33       1.0  0.8263463145842289  0.5396285691558498  0.32980464078521193  1.0000
  C   C34       1.0  0.17365368542123907  0.4603714307427413  0.6701953593111128  1.0000
  C   C35       1.0  0.7918414219161051  0.467239424132489  0.20605754905422485  1.0000
  C   C36       1.0  0.20815857808936294  0.5327605757661019  0.7939424510420999  1.0000
  C   C37       1.0  0.9414918196282744  0.42500240327328426  0.13412205811248926  1.0000
  C   C38       1.0  0.05850818037719353  0.5749975966253066  0.8658779419838355  1.0000
  C   C39       1.0  0.3579617994790817  0.5625195792095037  0.36760416175567195  1.0000
  C   C40       1.0  0.6420382005263863  0.4374804206890872  0.6323958383406529  1.0000
  O   O1        1.0  0.8070852991253482  0.8747627508963165  0.5338004260129757  1.0000
  O   O2        1.0  0.19291470088011978  0.12523724900227443  0.46619957408334906  1.0000
  O   O3        1.0  0.15992867137052563  0.15765718387234917  0.9668684607399597  1.0000
  O   O4        1.0  0.8400713286349424  0.8423428160262417  0.0331315393563652  1.0000
  O   O5        1.0  0.6786857228159401  0.03673995161258841  0.4119966589216145  1.0000
  O   O6        1.0  0.3213142771895279  0.9632600482860023  0.5880033411747102  1.0000
  O   O7        1.0  0.27571177857429907  0.4110589230900256  0.11886808428332835  1.0000
  O   O8        1.0  0.7242882214434709  0.5889410768130039  0.881131914952194  1.0000
