data_image0
_chemical_formula_structural       H60C72N4O12Br4
_chemical_formula_sum              "H60 C72 N4 O12 Br4"
_cell_length_a       10.293641063037713
_cell_length_b       11.01724785341577
_cell_length_c       14.08240924408664
_cell_angle_alpha    76.41885654688079
_cell_angle_beta     80.98033396549492
_cell_angle_gamma    86.45669252103914

_space_group_name_H-M_alt    "P 1"
_space_group_IT_number       1

loop_
  _space_group_symop_operation_xyz
  'x, y, z'

loop_
  _atom_site_type_symbol
  _atom_site_label
  _atom_site_symmetry_multiplicity
  _atom_site_fract_x
  _atom_site_fract_y
  _atom_site_fract_z
  _atom_site_occupancy
  H   H1        1.0  0.98007936734152  0.23725163374870123  0.013348620502967305  1.0000
  H   H2        1.0  0.019920632626349473  0.7627483657995703  0.9866513795827095  1.0000
  H   H3        1.0  0.31181904505581093  0.3670088899584928  0.137469951996491  1.0000
  H   H4        1.0  0.6881809548569809  0.6329911104982109  0.8625300480924716  1.0000
  H   H5        1.0  0.14907580777169924  0.30963740838435555  0.07112769078177797  1.0000
  H   H6        1.0  0.8509241922839595  0.6903625922897346  0.928872308568677  1.0000
  H   H7        1.0  0.9660546109464936  0.07534511154464936  0.4062290471958797  1.0000
  H   H8        1.0  0.033945388966298076  0.9246548889120545  0.5937709528930828  1.0000
  H   H9        1.0  0.06896317329035433  0.13930236206184718  0.8612066091807863  1.0000
  H   H10       1.0  0.9310368266224374  0.8606976383948568  0.13879339090817622  1.0000
  H   H11       1.0  0.12595049787924342  0.2318452553436497  0.6825764266166586  1.0000
  H   H12       1.0  0.8740495020886262  0.7681547442046218  0.31742357346901806  1.0000
  H   H13       1.0  0.07182217859901789  0.5964054153216082  0.7510595591295703  1.0000
  H   H14       1.0  0.9281778213688514  0.4035945842266631  0.24894044095610648  1.0000
  H   H15       1.0  0.015807537830164028  0.48924863032619303  0.9254596061254939  1.0000
  H   H16       1.0  0.9841924622805722  0.510751369439465  0.0745403932216754  1.0000
  H   H17       1.0  0.15004376830249994  0.4065706668845608  0.5481420624584424  1.0000
  H   H18       1.0  0.8499562326373534  0.5934293326586205  0.4518579376263435  1.0000
  H   H19       1.0  0.11735667161482531  0.6667137541246124  0.5961907946041018  1.0000
  H   H20       1.0  0.8826433282979665  0.33328624633209136  0.4038092054848606  1.0000
  H   H21       1.0  0.22206196977736317  0.48086760436140163  0.39539282512179486  1.0000
  H   H22       1.0  0.7779380301354286  0.519132396095302  0.6046071749671678  1.0000
  H   H23       1.0  0.2726594484375995  0.5854334840687961  0.21963610641969974  1.0000
  H   H24       1.0  0.7273405515302701  0.4145665154794753  0.780363893665977  1.0000
  H   H25       1.0  0.16622460943136122  0.9424645216196226  0.28833021552747473  1.0000
  H   H26       1.0  0.8337753904814306  0.05753547883708104  0.7116697845614879  1.0000
  H   H27       1.0  0.12049953566359353  0.8391585250618966  0.4659680905638236  1.0000
  H   H28       1.0  0.8795004642491983  0.16084147539480745  0.5340319095251389  1.0000
  H   H29       1.0  0.3316226126348753  0.01874871584199544  0.9831269916569556  1.0000
  H   H30       1.0  0.6683773873329941  0.9812512837062761  0.016873008428721196  1.0000
  H   H31       1.0  0.18327367098750436  0.1066057917761971  0.009109779124837042  1.0000
  H   H32       1.0  0.8167263289252874  0.8933942086805068  0.9908902209641255  1.0000
  H   H33       1.0  0.1779955878671744  0.9631810672490722  0.9687772196150182  1.0000
  H   H34       1.0  0.822004412100695  0.03681893229919925  0.03122278047065863  1.0000
  H   H35       1.0  0.45252375610280665  0.2801264715121418  0.9693428453407247  1.0000
  H   H36       1.0  0.5474762438099852  0.7198735289445619  0.03065715474823784  1.0000
  H   H37       1.0  0.4820030402909987  0.3939232443587861  0.7964642370121902  1.0000
  H   H38       1.0  0.5179969596768708  0.6060767551894853  0.2035357630734866  1.0000
  H   H39       1.0  0.27119757234024505  0.7086341259957829  0.8914752492129246  1.0000
  H   H40       1.0  0.7288024276276244  0.29136587355248866  0.1085247508727521  1.0000
  H   H41       1.0  0.2497330383469075  0.5800685728790783  0.06141270090167515  1.0000
  H   H42       1.0  0.7502669625378682  0.4199314275725354  0.9385872991863966  1.0000
  H   H43       1.0  0.34412544731869094  0.7336606826306594  0.7216918167818784  1.0000
  H   H44       1.0  0.6558745527369677  0.26633931804343075  0.2783081825685766  1.0000
  H   H45       1.0  0.5243983873071175  0.5263259312222156  0.6542418490210252  1.0000
  H   H46       1.0  0.47560161260567424  0.4736740692344881  0.3457581510679373  1.0000
  H   H47       1.0  0.598891055328931  0.5565452141524396  0.4846529875843248  1.0000
  H   H48       1.0  0.4011089447818052  0.4434547856132183  0.5153470117628445  1.0000
  H   H49       1.0  0.6155735308975349  0.6842290064705668  0.3118169596573777  1.0000
  H   H50       1.0  0.38442646901525696  0.3157709939861368  0.688183040431585  1.0000
  H   H51       1.0  0.400661970890016  0.9852130927674366  0.41728420247257486  1.0000
  H   H52       1.0  0.5993380290227759  0.01478690768926708  0.5827157976163877  1.0000
  H   H53       1.0  0.38107714394972547  0.8599919732923851  0.5879832867797383  1.0000
  H   H54       1.0  0.618922856018144  0.14000802625588632  0.41201671330593836  1.0000
  H   H55       1.0  0.5859382216804886  0.11912193229881213  0.11161824324421275  1.0000
  H   H56       1.0  0.4140617782323033  0.8808780681578917  0.8883817568447498  1.0000
  H   H57       1.0  0.4361627176590062  0.19725396697763015  0.15217226681767212  1.0000
  H   H58       1.0  0.5638372824517303  0.8027460327880279  0.8478277325294971  1.0000
  H   H59       1.0  0.43130230319900964  0.06681357565309633  0.09593498219016088  1.0000
  H   H60       1.0  0.5686976967137822  0.9331864248036076  0.9040650178988016  1.0000
  C   C1        1.0  0.9948980909261054  0.19006490912351887  0.15640365181918015  1.0000
  C   C2        1.0  0.0051019090417641225  0.8099350904247528  0.8435963482664965  1.0000
  C   C3        1.0  0.10821696563036412  0.2593175722936527  0.1449237632845459  1.0000
  C   C4        1.0  0.8917830342824278  0.7406824281630511  0.8550762368044166  1.0000
  C   C5        1.0  0.17171054396166424  0.26594052195182144  0.22496988212743277  1.0000
  C   C6        1.0  0.8282894560062053  0.7340594775964503  0.775030117958244  1.0000
  C   C7        1.0  0.11861877543980905  0.19784388896856103  0.31975898846280437  1.0000
  C   C8        1.0  0.8813812245280604  0.8021561105797104  0.6802410116228723  1.0000
  C   C9        1.0  0.005515968736356319  0.12886774340086088  0.33311341415550627  1.0000
  C   C10       1.0  0.9944840321484193  0.8711322570507527  0.6668865859325656  1.0000
  C   C11       1.0  0.9437221102458313  0.12566523446228928  0.2525845248607729  1.0000
  C   C12       1.0  0.05627789069402198  0.8743347650808923  0.7474154752240131  1.0000
  C   C13       1.0  0.07099518746715539  0.24047360221207773  0.8341316564533942  1.0000
  C   C14       1.0  0.9290048125007141  0.7595263973361938  0.16586834363228264  1.0000
  C   C15       1.0  0.10277637343861232  0.2927327995033486  0.7339757507914  1.0000
  C   C16       1.0  0.8972236264741795  0.7072672009533554  0.2660242492975626  1.0000
  C   C17       1.0  0.10307716528028112  0.42323185166448424  0.6992079018547289  1.0000
  C   C18       1.0  0.8969228347753775  0.576768149009606  0.3007920974957262  1.0000
  C   C19       1.0  0.07278196409858452  0.4947731013835558  0.7709846551419284  1.0000
  C   C20       1.0  0.927218035869285  0.5052268981647156  0.22901534494374848  1.0000
  C   C21       1.0  0.041503185856006375  0.4347497868939223  0.8694768254587898  1.0000
  C   C22       1.0  0.9584968141118632  0.5652502126543493  0.130523174626887  1.0000
  C   C23       1.0  0.13258109269954502  0.4755455427017515  0.5936114347124043  1.0000
  C   C24       1.0  0.8674189072132469  0.5244544577549523  0.4063885653765582  1.0000
  C   C25       1.0  0.1378585196865914  0.5987524900304881  0.5499331154565945  1.0000
  C   C26       1.0  0.8621414802262005  0.40124751042621576  0.45006688463236805  1.0000
  C   C27       1.0  0.16736406046314148  0.6529257341703788  0.4445472787267372  1.0000
  C   C28       1.0  0.8326359404767119  0.34707426537280284  0.5554527213580487  1.0000
  C   C29       1.0  0.21073908591413454  0.5822459452297444  0.3732839260991594  1.0000
  C   C30       1.0  0.7892609140537349  0.41775405431852713  0.6267160739865173  1.0000
  C   C31       1.0  0.23904168458415292  0.6406074437458757  0.2740378808440896  1.0000
  C   C32       1.0  0.7609583153837166  0.3593925558023958  0.725962119241587  1.0000
  C   C33       1.0  0.2226436071529035  0.7707270160083635  0.2425699701961756  1.0000
  C   C34       1.0  0.7773563927598883  0.2292729844483405  0.757430029892787  1.0000
  C   C35       1.0  0.1785658476316633  0.8416932710458066  0.31239926807886176  1.0000
  C   C36       1.0  0.8214341523362062  0.1583067285024649  0.6876007320068149  1.0000
  C   C37       1.0  0.15265073392196774  0.7833506004968045  0.4117279697009138  1.0000
  C   C38       1.0  0.8473492659908242  0.21664939995989918  0.5882720303880488  1.0000
  C   C39       1.0  0.2508806763374875  0.8300082611531829  0.13580321258159608  1.0000
  C   C40       1.0  0.7491193236303819  0.16999173839508872  0.8641967875040807  1.0000
  C   C41       1.0  0.22646331617505236  0.013026077168843696  0.011818618629436454  1.0000
  C   C42       1.0  0.7735366837377395  0.9869739232878599  0.988181381459526  1.0000
  C   C43       1.0  0.4131266196743641  0.375230257042882  0.9497482609875147  1.0000
  C   C44       1.0  0.5868733812654892  0.6247697425002995  0.05025173909727112  1.0000
  C   C45       1.0  0.4305832358212244  0.44081910892242226  0.8519155141343094  1.0000
  C   C46       1.0  0.569416764146645  0.5591808906258492  0.14808448595136736  1.0000
  C   C47       1.0  0.3815123108334684  0.5646661021658363  0.8272516862622454  1.0000
  C   C48       1.0  0.618487689134401  0.435333897382435  0.1727483138234314  1.0000
  C   C49       1.0  0.3134435728543381  0.6141877069304658  0.9048847676930525  1.0000
  C   C50       1.0  0.6865564270584538  0.3858122935262379  0.0951152323959101  1.0000
  C   C51       1.0  0.3001453508157781  0.5419415461802515  0.0004933801736642233  1.0000
  C   C52       1.0  0.6998546490970137  0.45805845427645214  0.9995066199152983  1.0000
  C   C53       1.0  0.39671894363065674  0.6434470404827008  0.7281764526946383  1.0000
  C   C54       1.0  0.6032810563372127  0.35655295906557066  0.2718235473910385  1.0000
  C   C55       1.0  0.4705809052974044  0.6158904365572615  0.6474618880241156  1.0000
  C   C56       1.0  0.5294190946704651  0.38410956299101  0.3525381120615611  1.0000
  C   C57       1.0  0.4847151111342203  0.6964670330789275  0.5488194742222032  1.0000
  C   C58       1.0  0.5152848887785715  0.3035329673777762  0.4511805258667593  1.0000
  C   C59       1.0  0.5538879119190376  0.6499289694253163  0.46964462671680546  1.0000
  C   C60       1.0  0.4461120879937542  0.35007103103138737  0.5303553733721571  1.0000
  C   C61       1.0  0.5633523114984129  0.7203313704665528  0.3732835519299408  1.0000
  C   C62       1.0  0.4366476884143789  0.279668629990151  0.6267164481590218  1.0000
  C   C63       1.0  0.5061501372773844  0.8405889885702352  0.3535707706208398  1.0000
  C   C64       1.0  0.4938498626904851  0.15941101097803625  0.6464292294648369  1.0000
  C   C65       1.0  0.44264200919133445  0.8906537370253981  0.4322954653003577  1.0000
  C   C66       1.0  0.5573579908643242  0.10934626364869222  0.5677045340500974  1.0000
  C   C67       1.0  0.43159880266298434  0.8194291451181536  0.5282504712468711  1.0000
  C   C68       1.0  0.568401197447752  0.18057085464750447  0.4717495281002982  1.0000
  C   C69       1.0  0.5139829300031281  0.9103705975214662  0.24932132496922063  1.0000
  C   C70       1.0  0.48601706990966376  0.08962940293523754  0.750678675119742  1.0000
  C   C71       1.0  0.48196801227344005  0.107851455308138  0.1432061287492832  1.0000
  C   C72       1.0  0.5180319876393518  0.8921485451485658  0.8567938713396793  1.0000
  N   N1        1.0  0.03940160349986958  0.3094611378301529  0.9020279711261033  1.0000
  N   N2        1.0  0.9605983964679999  0.6905388617181186  0.09797202895957337  1.0000
  N   N3        1.0  0.3496746117937926  0.42467686280436867  0.02374156707315742  1.0000
  N   N4        1.0  0.650325388261866  0.5753231378697218  0.9762584322772976  1.0000
  O   O1        1.0  0.9346085466497808  0.18369127354484804  0.07967883555207701  1.0000
  O   O2        1.0  0.06539145346095565  0.8163087262208103  0.9203211637950921  1.0000
  O   O3        1.0  0.2790990930572831  0.3342071240447026  0.21306751219555595  1.0000
  O   O4        1.0  0.7209009068555088  0.6657928764120012  0.7869324878934065  1.0000
  O   O5        1.0  0.30730287451721794  0.7775602266875254  0.07240197667372832  1.0000
  O   O6        1.0  0.6926971254506515  0.22243977286074604  0.9275980234119484  1.0000
  O   O7        1.0  0.20523483500300604  0.9497431608957984  0.1151524971766003  1.0000
  O   O8        1.0  0.7947651649097857  0.05025683956090542  0.8848475029123622  1.0000
  O   O9        1.0  0.5566180835189741  0.8661601821211207  0.17770968840086285  1.0000
  O   O10       1.0  0.4433819163938175  0.13383981833558314  0.8222903116880997  1.0000
  O   O11       1.0  0.4693344188400276  0.029822460973885006  0.24184698292928078  1.0000
  O   O12       1.0  0.5306655810727643  0.9701775394828187  0.7581530171596818  1.0000
  Br  Br1       1.0  0.20439078649424455  0.19704296999438783  0.43031705881232013  1.0000
  Br  Br2       1.0  0.7956092134185471  0.8029570304623159  0.5696829412766424  1.0000
  Br  Br3       1.0  0.7901463029437964  0.03003940658151251  0.27260729035138564  1.0000
  Br  Br4       1.0  0.20985369696899553  0.9699605938751912  0.7273927097375769  1.0000
