data_image0
_chemical_formula_structural       H36C28N12O8
_chemical_formula_sum              "H36 C28 N12 O8"
_cell_length_a       10.52046944993933
_cell_length_b       3.6664995665728446
_cell_length_c       19.864185045837427
_cell_angle_alpha    90.0
_cell_angle_beta     95.17277679251934
_cell_angle_gamma    90.0

_space_group_name_H-M_alt    "P 1"
_space_group_IT_number       1

loop_
  _space_group_symop_operation_xyz
  'x, y, z'

loop_
  _atom_site_type_symbol
  _atom_site_label
  _atom_site_symmetry_multiplicity
  _atom_site_fract_x
  _atom_site_fract_y
  _atom_site_fract_z
  _atom_site_occupancy
  H   H1        1.0  0.6640667281055497  0.7411419176956315  0.32204876912060454  1.0000
  H   H2        1.0  0.3359332718981711  0.24114191586457237  0.17795123105229546  1.0000
  H   H3        1.0  0.33593327255215066  0.25885808323908976  0.6779512311752809  1.0000
  H   H4        1.0  0.664066727805127  0.758858082342752  0.8220487692006104  1.0000
  H   H5        1.0  0.5262807551084281  0.614700059028419  0.21511993086008405  1.0000
  H   H6        1.0  0.4737192448952927  0.11470005992475678  0.28488006931281595  1.0000
  H   H7        1.0  0.4737192455492723  0.3852999419063024  0.7848800694358012  1.0000
  H   H8        1.0  0.5262807548030883  0.8852999410099646  0.7151199304364433  1.0000
  H   H9        1.0  0.8418105684419155  0.9382470466825988  0.10481483064891776  1.0000
  H   H10       1.0  0.1581894315618053  0.4382470475789367  0.39518516952398225  1.0000
  H   H11       1.0  0.1581894312613826  0.06175295425212254  0.8951851696039882  1.0000
  H   H12       1.0  0.841810569090978  0.5617529533557847  0.6048148302682564  1.0000
  H   H13       1.0  0.966730776019642  0.04369809326058646  0.2139759723297032  1.0000
  H   H14       1.0  0.03326922397916166  0.5436980923642486  0.2860240273395501  1.0000
  H   H15       1.0  0.033269223678738975  0.9563019076741349  0.7860240274195561  1.0000
  H   H16       1.0  0.9667307757192193  0.4563019085704727  0.7139759724097091  1.0000
  H   H17       1.0  0.5822941162553288  0.6968371967893533  0.9842861146980242  1.0000
  H   H18       1.0  0.41770588409703174  0.1968371976856912  0.5157138851742206  1.0000
  H   H19       1.0  0.4177058834479694  0.303162801417971  0.015713885554881884  1.0000
  H   H20       1.0  0.5822941165557515  0.8031628032490302  0.48428611461801807  1.0000
  H   H21       1.0  0.7130787882898723  0.930649917733246  0.0273284799854221  1.0000
  H   H22       1.0  0.28692121171384855  0.43064991862958385  0.4726715201874779  1.0000
  H   H23       1.0  0.2869212114134259  0.0693500804740783  0.9726715202674838  1.0000
  H   H24       1.0  0.7130787879894496  0.5693500823051375  0.5273284800654281  1.0000
  H   H25       1.0  0.754880762758243  0.1920152715736078  0.9163861724913624  1.0000
  H   H26       1.0  0.24511923759411755  0.69201527067727  0.5836138273808822  1.0000
  H   H27       1.0  0.24511923694013799  0.8079847293611135  0.08361382725789684  1.0000
  H   H28       1.0  0.7548807630586657  0.30798472753005435  0.41638617241135645  1.0000
  H   H29       1.0  0.8999184226794452  0.517000033842044  0.8617119621384668  1.0000
  H   H30       1.0  0.10008157767291528  0.017000032010984732  0.6382880377337776  1.0000
  H   H31       1.0  0.10008157797333797  0.4829999670926774  0.13828803765377162  1.0000
  H   H32       1.0  0.8999184220254657  0.9829999661963396  0.36171196201548167  1.0000
  H   H33       1.0  0.004752718024399346  0.5771232047295429  0.9384208318528118  1.0000
  H   H34       1.0  0.9952472823279612  0.07712320562588071  0.5615791680194329  1.0000
  H   H35       1.0  0.9952472816739816  0.4228767962051785  0.06157916789644753  1.0000
  H   H36       1.0  0.004752718324822024  0.9228767953088406  0.43842083177280566  1.0000
  C   C1        1.0  0.700971463023503  0.779589962606153  0.2728146285599943  1.0000
  C   C2        1.0  0.29902853698021786  0.2795899635024908  0.2271853716129057  1.0000
  C   C3        1.0  0.29902853667979523  0.22041003560117137  0.7271853716929118  1.0000
  C   C4        1.0  0.7009714636725654  0.7204100374322305  0.7728146281793328  1.0000
  C   C5        1.0  0.6235106690213665  0.7123039543793472  0.21360845868194542  1.0000
  C   C6        1.0  0.3764893309774371  0.21230395254828807  0.28639154098730785  1.0000
  C   C7        1.0  0.37648933067701446  0.2876960465553741  0.786391541067314  1.0000
  C   C8        1.0  0.6235106696753462  0.7876960456590363  0.7136084588049307  1.0000
  C   C9        1.0  0.6714780575580006  0.7693007536985783  0.15122795067273515  1.0000
  C   C10       1.0  0.32852194244572025  0.26930075459491615  0.3487720495001648  1.0000
  C   C11       1.0  0.32852194214529756  0.23069924450874602  0.8487720495801708  1.0000
  C   C12       1.0  0.6714780572526607  0.7306992463398052  0.6512279502490945  1.0000
  C   C13       1.0  0.7973488009637084  0.8914670684265745  0.15136694784807161  1.0000
  C   C14       1.0  0.20265119903509526  0.3914670693229124  0.34863305182118165  1.0000
  C   C15       1.0  0.2026511987346726  0.10853292978074976  0.8486330519011878  1.0000
  C   C16       1.0  0.7973488006632857  0.608532931611809  0.6513669479280776  1.0000
  C   C17       1.0  0.8680390433488597  0.9511575268669034  0.2129575817645024  1.0000
  C   C18       1.0  0.13196095665486113  0.45115752503584416  0.28704241840839756  1.0000
  C   C19       1.0  0.13196095635443844  0.04884247406781798  0.7870424184884035  1.0000
  C   C20       1.0  0.86803904304352  0.5488424731714802  0.7129575813408617  1.0000
  C   C21       1.0  0.5882440554766201  0.6816477227450248  0.08777067536919372  1.0000
  C   C22       1.0  0.4117559445271008  0.18164772364136264  0.4122293248037063  1.0000
  C   C23       1.0  0.411755944221761  0.3183522754622995  0.9122293243800655  1.0000
  C   C24       1.0  0.5882440561305996  0.8183522772933587  0.587770675492179  1.0000
  C   C25       1.0  0.8422289279125276  0.28245955609590667  0.9470674842293509  1.0000
  C   C26       1.0  0.15777107243983307  0.7824595579269659  0.5529325156428936  1.0000
  C   C27       1.0  0.15777107179077063  0.7175404421114177  0.052932516023555046  1.0000
  C   C28       1.0  0.8422289282129501  0.21754044300775546  0.44706748414934494  1.0000
  N   N1        1.0  0.8222183114066096  0.8973490110283456  0.2731727685768242  1.0000
  N   N2        1.0  0.17778168859219406  0.39734900919728644  0.2268272310924291  1.0000
  N   N3        1.0  0.1777816882917714  0.10265098990637572  0.7268272311724351  1.0000
  N   N4        1.0  0.8222183120605893  0.6026509890100379  0.7731727686998094  1.0000
  N   N5        1.0  0.6298437576114848  0.7857071295641092  0.02931686733072825  1.0000
  N   N6        1.0  0.370156242392236  0.285707130460447  0.4706831328421717  1.0000
  N   N7        1.0  0.3701562430412984  0.2142928713706122  0.9706831324615104  1.0000
  N   N8        1.0  0.6298437573110621  0.7142928704742744  0.5293168674107342  1.0000
  N   N9        1.0  0.9237200847670259  0.4672840126915534  0.9127918386510689  1.0000
  N   N10       1.0  0.07627991558533473  0.9672840117952155  0.5872081612211758  1.0000
  N   N11       1.0  0.07627991588575742  0.532715988243168  0.08720816114116978  1.0000
  N   N12       1.0  0.9237200841179634  0.032715989139505824  0.4127918390317302  1.0000
  O   O1        1.0  0.48579067757018773  0.5095046204372394  0.0922759167517035  1.0000
  O   O2        1.0  0.5142093224335331  0.00950462133357725  0.4077240834211965  1.0000
  O   O3        1.0  0.5142093221331103  0.4904953804974819  0.9077240835012024  1.0000
  O   O4        1.0  0.48579067821925026  0.9904953796011441  0.5922759163710422  1.0000
  O   O5        1.0  0.8570624807210171  0.21196052417003872  0.00913674877670934  1.0000
  O   O6        1.0  0.14293751928270373  0.711960523273701  0.49086325139619064  1.0000
  O   O7        1.0  0.14293751993668333  0.7880394767646826  0.990863251519176  1.0000
  O   O8        1.0  0.8570624804205944  0.2880394776610204  0.5091367488567154  1.0000
