data_image0
_chemical_formula_structural       H88C64N8O12
_chemical_formula_sum              "H88 C64 N8 O12"
_cell_length_a       5.876809598799574
_cell_length_b       18.22571392432833
_cell_length_c       14.228571731192662
_cell_angle_alpha    90.0
_cell_angle_beta     99.48296447624882
_cell_angle_gamma    90.0

_space_group_name_H-M_alt    "P 1"
_space_group_IT_number       1

loop_
  _space_group_symop_operation_xyz
  'x, y, z'

loop_
  _atom_site_type_symbol
  _atom_site_label
  _atom_site_symmetry_multiplicity
  _atom_site_fract_x
  _atom_site_fract_y
  _atom_site_fract_z
  _atom_site_occupancy
  H   H1        1.0  0.47993731654852106  0.6444674282043451  0.8820832461781531  1.0000
  H   H2        1.0  0.020062683860056916  0.14446742832308745  0.6179167543432869  1.0000
  H   H3        1.0  0.5200626838905773  0.3555325715581702  0.11791675386682421  1.0000
  H   H4        1.0  0.9799373165790415  0.8555325714394278  0.3820832457016905  1.0000
  H   H5        1.0  0.34138838768935736  0.5611644571216389  0.9022739074050323  1.0000
  H   H6        1.0  0.15861161099214194  0.061164457240381186  0.5977260922968464  1.0000
  H   H7        1.0  0.6586116110245634  0.4388355431895518  0.09772609252332404  1.0000
  H   H8        1.0  0.8413883877217787  0.9388355430708094  0.40227390763150983  1.0000
  H   H9        1.0  0.5591119967904667  0.4405215605454471  0.7813340430360111  1.0000
  H   H10       1.0  0.940888003005592  0.9405215604267048  0.7186659569731444  1.0000
  H   H11       1.0  0.4408880036486317  0.5594784397657435  0.2186659570089662  1.0000
  H   H12       1.0  0.05911199743350636  0.059478439884485895  0.2813340430718329  1.0000
  H   H13       1.0  0.7658085717214045  0.4890236567415267  0.7286972896087545  1.0000
  H   H14       1.0  0.7341914280746543  0.9890236566227842  0.771302710400401  1.0000
  H   H15       1.0  0.23419142871769394  0.5109763435696639  0.2713027104362228  1.0000
  H   H16       1.0  0.2658085723644441  0.010976343688406297  0.22869728964457633  1.0000
  H   H17       1.0  0.1757896006959944  0.4959343001611996  0.756219292924116  1.0000
  H   H18       1.0  0.3242103997106826  0.9959343000424573  0.7437807068943839  1.0000
  H   H19       1.0  0.8242103997431041  0.5040657001499911  0.24378070712086133  1.0000
  H   H20       1.0  0.6757896007284158  0.004065699720058062  0.2562192931505935  1.0000
  H   H21       1.0  0.13534769124937682  0.5883404520953586  0.7193741905307888  1.0000
  H   H22       1.0  0.3646523091573001  0.0883404522141009  0.780625809287711  1.0000
  H   H23       1.0  0.8646523091897215  0.41165954766715673  0.28062580951418853  1.0000
  H   H24       1.0  0.6353476912817982  0.9116595480970898  0.21937419075726633  1.0000
  H   H25       1.0  0.3505275668997409  0.46764346545695623  0.6111626992732794  1.0000
  H   H26       1.0  0.14947243350883707  0.9676434653382139  0.8888373012481606  1.0000
  H   H27       1.0  0.6494724335393575  0.5323565343055591  0.388837300771698  1.0000
  H   H28       1.0  0.8505275669302612  0.032356534424301454  0.1111626987968167  1.0000
  H   H29       1.0  0.07138929360637102  0.5044512971164078  0.5795097621151565  1.0000
  H   H30       1.0  0.42861070680030594  0.0044512972351501345  0.9204902377033434  1.0000
  H   H31       1.0  0.9286107068327274  0.4955487026461075  0.4204902379298208  1.0000
  H   H32       1.0  0.5713892936387924  0.9955487030760405  0.07950976234163401  1.0000
  H   H33       1.0  0.2326016402961647  0.6278246447578701  0.5572404567732044  1.0000
  H   H34       1.0  0.2673983601124133  0.12782464432793714  0.9427595437482356  1.0000
  H   H35       1.0  0.7673983601429336  0.3721753555533205  0.4427595432717729  1.0000
  H   H36       1.0  0.7326016403266852  0.8721753554345781  0.05724045629674174  1.0000
  H   H37       1.0  0.34898475618776204  0.5635879731596602  0.4852736071217997  1.0000
  H   H38       1.0  0.15101524316919826  0.0635879732784026  0.014726392842378543  1.0000
  H   H39       1.0  0.6510152442513363  0.43641202660285505  0.5147263929231777  1.0000
  H   H40       1.0  0.8489847555447225  0.9364120264841127  0.9852736070859779  1.0000
  H   H41       1.0  0.7085232292482374  0.5553649657854499  0.6026336430853273  1.0000
  H   H42       1.0  0.7914767705478214  0.0553649653555169  0.8973663569238283  1.0000
  H   H43       1.0  0.29147676946568335  0.4446350345257407  0.3973663568430292  1.0000
  H   H44       1.0  0.20852322989127697  0.9446350344069985  0.10263364312114902  1.0000
  H   H45       1.0  0.6533103728661668  0.6477514389294396  0.5715165569199723  1.0000
  H   H46       1.0  0.846689626929892  0.14775143904818205  0.9284834430891832  1.0000
  H   H47       1.0  0.3466896275729316  0.35224856083307554  0.428483443125005  1.0000
  H   H48       1.0  0.15331037178402876  0.8522485612630085  0.07151655683917314  1.0000
  H   H49       1.0  0.49324954174494506  0.6715299455931215  0.7178540731338509  1.0000
  H   H50       1.0  0.006750458661731914  0.1715299457118639  0.782145926684649  1.0000
  H   H51       1.0  0.5067504586941534  0.32847005416939373  0.2821459269111265  1.0000
  H   H52       1.0  0.9932495417773665  0.8284700540506514  0.21785407336032836  1.0000
  H   H53       1.0  0.7712265319775163  0.632755945686501  0.7478778316552157  1.0000
  H   H54       1.0  0.7287734678185424  0.1327559458052433  0.75212216835394  1.0000
  H   H55       1.0  0.228773468461582  0.36724405407601435  0.25212216838976176  1.0000
  H   H56       1.0  0.27122653262055607  0.867244053957272  0.24787783169103741  1.0000
  H   H57       1.0  0.933419461245116  0.4722241068708741  0.9025156032409049  1.0000
  H   H58       1.0  0.5665805385509427  0.9722241067521318  0.5974843967682507  1.0000
  H   H59       1.0  0.06658053746880468  0.5277758934403165  0.09748439668745151  1.0000
  H   H60       1.0  0.4334194618881556  0.02777589301038347  0.40251560327672664  1.0000
  H   H61       1.0  0.1928203888193111  0.8786619380996442  0.5838820383681302  1.0000
  H   H62       1.0  0.3071796115873659  0.3786619382183865  0.9161179614503696  1.0000
  H   H63       1.0  0.8071796116197874  0.12133806166287116  0.41611796167684717  1.0000
  H   H64       1.0  0.6928203888517326  0.6213380620928042  0.08388203859460772  1.0000
  H   H65       1.0  0.9212232559199612  0.7740166870044782  0.7393704817377696  1.0000
  H   H66       1.0  0.5787767438760976  0.2740166865745452  0.7606295182713858  1.0000
  H   H67       1.0  0.0787767445191372  0.22598331330671242  0.26062951830720754  1.0000
  H   H68       1.0  0.42122325483782314  0.72598331318797  0.23937048165697064  1.0000
  H   H69       1.0  0.8585100037910172  0.7096649044148026  0.8845681749807363  1.0000
  H   H70       1.0  0.6414899960050415  0.20966490453354497  0.6154318250284192  1.0000
  H   H71       1.0  0.14148999664808112  0.2903350953477127  0.11543182506424106  1.0000
  H   H72       1.0  0.3585100027088792  0.7903350952289703  0.3845681748999371  1.0000
  H   H73       1.0  0.5474905299680689  0.7671577957413417  0.020514589512387788  1.0000
  H   H74       1.0  0.9525094705034509  0.2671577958600841  0.47948541075906703  1.0000
  H   H75       1.0  0.45250947047102946  0.23284220402117353  0.9794854105325896  1.0000
  H   H76       1.0  0.047490529935647494  0.7328422039024312  0.5205145892859102  1.0000
  H   H77       1.0  0.6084020140166835  0.8325804949536001  0.8736035827430206  1.0000
  H   H78       1.0  0.8915979857793753  0.3325804950723424  0.6263964172661348  1.0000
  H   H79       1.0  0.3915979864224149  0.16741950480891524  0.12639641730195664  1.0000
  H   H80       1.0  0.10840201293454542  0.6674195046901729  0.3736035826622216  1.0000
  H   H81       1.0  0.30735434582650967  0.6846244532206901  0.09268244258649896  1.0000
  H   H82       1.0  0.19264565525562838  0.18462445333943248  0.40731755749430015  1.0000
  H   H83       1.0  0.6926456546125886  0.31537554709050053  0.9073175574584783  1.0000
  H   H84       1.0  0.8073543451834699  0.8153755469717582  0.5926824425506771  1.0000
  H   H85       1.0  0.031174415479094525  0.6621536347001973  0.041259979218926865  1.0000
  H   H86       1.0  0.4688255838778659  0.16215363481893968  0.45874002074525133  1.0000
  H   H87       1.0  0.9688255832348263  0.33784636506231797  0.9587400207094295  1.0000
  H   H88       1.0  0.5311744165612325  0.8378463649435756  0.541259979299726  1.0000
  C   C1        1.0  0.7058818231977013  0.5535209430964326  0.9291204614571887  1.0000
  C   C2        1.0  0.7941181765983573  0.053520943215174956  0.5708795385519667  1.0000
  C   C3        1.0  0.29411817724139705  0.44647905666608273  0.07087953858778856  1.0000
  C   C4        1.0  0.205881823840741  0.9464790565473403  0.42912046149301053  1.0000
  C   C5        1.0  0.4877968105279596  0.5848029681719474  0.8730524778293626  1.0000
  C   C6        1.0  0.012203189878717317  0.08480296829068987  0.6269475219891373  1.0000
  C   C7        1.0  0.5122031899111387  0.4151970315905678  0.12694752221561473  1.0000
  C   C8        1.0  0.987796810560381  0.9151970314718254  0.37305247805584013  1.0000
  C   C9        1.0  0.4898688633446743  0.5600925435559418  0.7693512887097855  1.0000
  C   C10       1.0  0.010131137062002697  0.060092543674684196  0.7306487111087143  1.0000
  C   C11       1.0  0.5101311370944241  0.4399074567552488  0.23064871133519183  1.0000
  C   C12       1.0  0.9898688633770958  0.9399074566365063  0.26935128893626303  1.0000
  C   C13       1.0  0.6531014814484997  0.4926570546031932  0.7824975308796209  1.0000
  C   C14       1.0  0.846898518347559  0.992657054484451  0.7175024691295345  1.0000
  C   C15       1.0  0.34689851899059865  0.507342945159322  0.2175024691653564  1.0000
  C   C16       1.0  0.15310148209153937  0.0073429452780644396  0.2824975309154427  1.0000
  C   C17       1.0  0.2480998078089196  0.5401245696531904  0.7175312125018314  1.0000
  C   C18       1.0  0.25190019259965835  0.04012456977193284  0.7824687880196085  1.0000
  C   C19       1.0  0.7519001926301788  0.45987543010932486  0.28246878754314597  1.0000
  C   C20       1.0  0.74809980783944  0.9598754299905824  0.2175312120253687  1.0000
  C   C21       1.0  0.2479255033826906  0.5180991048803589  0.6137572907299274  1.0000
  C   C22       1.0  0.2520744970239864  0.018099104999101244  0.8862427090885724  1.0000
  C   C23       1.0  0.7520744970564077  0.48190089543083175  0.38624270931505006  1.0000
  C   C24       1.0  0.747925503415112  0.9819008953120895  0.11375729095640481  1.0000
  C   C25       1.0  0.3468082625227937  0.5796816895000921  0.5596415021566508  1.0000
  C   C26       1.0  0.15319173788388332  0.0796816896188345  0.9403584976618491  1.0000
  C   C27       1.0  0.6531917379144038  0.4203183102624231  0.44035849718538633  1.0000
  C   C28       1.0  0.8468082625552151  0.9203183106923561  0.0596415023831283  1.0000
  C   C29       1.0  0.5890549809844585  0.6011556011188615  0.6084677670166448  1.0000
  C   C30       1.0  0.910945020536778  0.10115560123760382  0.8915322331091317  1.0000
  C   C31       1.0  0.41094501945463996  0.3988443986436538  0.39153223302833257  1.0000
  C   C32       1.0  0.08905497990232045  0.8988443985249114  0.10846776693584562  1.0000
  C   C33       1.0  0.5931939509034719  0.6207673574255859  0.7134230977870554  1.0000
  C   C34       1.0  0.9068060488925869  0.12076735754432819  0.7865769022221001  1.0000
  C   C35       1.0  0.40680604781044877  0.37923264288560476  0.2865769021413009  1.0000
  C   C36       1.0  0.09319395154651161  0.8792326427668625  0.2134230978228773  1.0000
  C   C37       1.0  0.3195292708906552  0.8455803121889478  0.7108525345938699  1.0000
  C   C38       1.0  0.18047072951602178  0.3455803123076901  0.78914746522463  1.0000
  C   C39       1.0  0.6804707295484432  0.15441968812224288  0.2891474654511075  1.0000
  C   C40       1.0  0.8195292709230767  0.6544196880035005  0.21085253482034738  1.0000
  C   C41       1.0  0.2716470790660863  0.807121071968769  0.7956219530279407  1.0000
  C   C42       1.0  0.22835292134059063  0.307121071538836  0.704378046790559  1.0000
  C   C43       1.0  0.728352921373012  0.19287892834242165  0.2043780470170365  1.0000
  C   C44       1.0  0.7716470790985078  0.6928789282236794  0.2956219532544183  1.0000
  C   C45       1.0  0.06000072370319043  0.7722905740998964  0.8003294353751412  1.0000
  C   C46       1.0  0.4399992767053876  0.2722905742186387  0.6996705651462989  1.0000
  C   C47       1.0  0.939999276735908  0.2277094256626189  0.19967056466983615  1.0000
  C   C48       1.0  0.5600007237337109  0.727709426092552  0.3003294348986785  1.0000
  C   C49       1.0  0.024015073221531253  0.7359102560090408  0.8819877325715727  1.0000
  C   C50       1.0  0.47598492718514573  0.23591025612778316  0.6180122672469271  1.0000
  C   C51       1.0  0.9759849272175671  0.2640897437534745  0.11801226747340464  1.0000
  C   C52       1.0  0.5240150732539527  0.7640897441834075  0.38198773279805026  1.0000
  C   C53       1.0  0.20001265949765748  0.7325189205443985  0.9627355595561522  1.0000
  C   C54       1.0  0.2999873409109205  0.23251892066314087  0.5372644409652877  1.0000
  C   C55       1.0  0.7999873409414411  0.2674810792181168  0.03726444048882505  1.0000
  C   C56       1.0  0.7000126595281779  0.7674810796480498  0.46273555907968966  1.0000
  C   C57       1.0  0.4112869600432274  0.768916323837035  0.9584680620440307  1.0000
  C   C58       1.0  0.08871303863827185  0.2689163234071021  0.5415319376578482  1.0000
  C   C59       1.0  0.5887130386706932  0.2310836764741556  0.04153193788432577  1.0000
  C   C60       1.0  0.9112869600756488  0.7310836763554133  0.4584680622705082  1.0000
  C   C61       1.0  0.4451324636977397  0.8051600212166067  0.8766746350061086  1.0000
  C   C62       1.0  0.05486753498566066  0.305160021335349  0.6233253653987103  1.0000
  C   C63       1.0  0.5548675350161811  0.19483997854590865  0.12332536492224769  1.0000
  C   C64       1.0  0.94513246372826  0.6948399784271663  0.37667463452964606  1.0000
  N   N1        1.0  0.791782300997549  0.5036787177783109  0.8763989643644724  1.0000
  N   N2        1.0  0.7082176987966089  0.003678717897053291  0.6236010349417431  1.0000
  N   N3        1.0  0.20821769943964846  0.4963212825328797  0.12360103497756487  1.0000
  N   N4        1.0  0.2917823016424896  0.9963212824141373  0.37639896510323423  1.0000
  N   N5        1.0  0.16718341202319567  0.6967463388662831  0.04319509372375883  1.0000
  N   N6        1.0  0.3328165873337647  0.19674633843635012  0.4568049062404193  1.0000
  N   N7        1.0  0.8328165884159028  0.3032536614449075  0.9568049063212186  1.0000
  N   N8        1.0  0.6671834131053337  0.8032536613261652  0.543195093804558  1.0000
  O   O1        1.0  0.7948604863919322  0.5704092066386984  0.013631565354330674  1.0000
  O   O2        1.0  0.7051395123544099  0.07040920675744075  0.48636843480050324  1.0000
  O   O3        1.0  0.20513951232198854  0.42959079312381687  0.9863684345740257  1.0000
  O   O4        1.0  0.2948604863595108  0.9295907935537499  0.5136315651278531  1.0000
  O   O5        1.0  0.5058991179444223  0.8755854671184358  0.7056890292706991  1.0000
  O   O6        1.0  0.9941008818516365  0.3755854672371782  0.7943109707384564  1.0000
  O   O7        1.0  0.4941008824946762  0.12441453319275479  0.29431097077427826  1.0000
  O   O8        1.0  0.005899118587461867  0.6244145330740124  0.20568902930652092  1.0000
  O   O9        1.0  0.14249482417836573  0.8470212395572274  0.6365291071292329  1.0000
  O   O10       1.0  0.3575051762283113  0.3470212391272944  0.863470892689267  1.0000
  O   O11       1.0  0.8575051762607326  0.15297876075396324  0.36347089291574447  1.0000
  O   O12       1.0  0.6424948242107871  0.652978760635221  0.1365291073557104  1.0000
