data_image0
_chemical_formula_structural       H50C64N2O4Cl2
_chemical_formula_sum              "H50 C64 N2 O4 Cl2"
_cell_length_a       8.55916742855782
_cell_length_b       10.34380470293923
_cell_length_c       14.587514171327255
_cell_angle_alpha    72.93854783834821
_cell_angle_beta     81.7572629964287
_cell_angle_gamma    78.17151327493522

_space_group_name_H-M_alt    "P 1"
_space_group_IT_number       1

loop_
  _space_group_symop_operation_xyz
  'x, y, z'

loop_
  _atom_site_type_symbol
  _atom_site_label
  _atom_site_symmetry_multiplicity
  _atom_site_fract_x
  _atom_site_fract_y
  _atom_site_fract_z
  _atom_site_occupancy
  H   H1        1.0  0.1633929820798513  0.07239595100473088  0.20582714643590871  1.0000
  H   H2        1.0  0.8366070179606411  0.9276040490871297  0.7941728536885564  1.0000
  H   H3        1.0  0.993934965644097  0.004241116573852435  0.3596384190976309  1.0000
  H   H4        1.0  0.0060650343963953995  0.9957588835180081  0.6403615810268344  1.0000
  H   H5        1.0  0.8306147850980374  0.06402526388755496  0.49892167282563266  1.0000
  H   H6        1.0  0.16938521494245495  0.9359747362043053  0.5010783272988325  1.0000
  H   H7        1.0  0.7271577970521171  0.23244997591092376  0.5954075227643695  1.0000
  H   H8        1.0  0.2728422020652478  0.7675500231955483  0.40459247735462645  1.0000
  H   H9        1.0  0.7964928054241928  0.466325004692616  0.5378721990377858  1.0000
  H   H10       1.0  0.2035071934480434  0.53367499539979  0.46212780108579615  1.0000
  H   H11       1.0  0.9669014425945225  0.5344395672206833  0.3855058239555901  1.0000
  H   H12       1.0  0.033098557552439845  0.4655604331572664  0.6144941754489609  1.0000
  H   H13       1.0  0.01884714400804703  0.8379950115878356  0.08573603437900362  1.0000
  H   H14       1.0  0.9811528560324454  0.16200498850402498  0.9142639657454615  1.0000
  H   H15       1.0  0.25901283741805153  0.8815237055992664  0.13964288848138656  1.0000
  H   H16       1.0  0.7409871626224408  0.11847629449259411  0.8603571116430786  1.0000
  H   H17       1.0  0.5044097225814319  0.7922031307155722  0.2270353851800572  1.0000
  H   H18       1.0  0.49559027770418923  0.20779686839035463  0.772964614939822  1.0000
  H   H19       1.0  0.682897438067301  0.596835440746592  0.3264452543033781  1.0000
  H   H20       1.0  0.31710256207966103  0.40316455963135783  0.673554745101173  1.0000
  H   H21       1.0  0.6069368864476689  0.36490437796558295  0.3824869609698334  1.0000
  H   H22       1.0  0.39306311242456726  0.6350956221268228  0.6175130391537487  1.0000
  H   H23       1.0  0.35370334934240044  0.3261871309774028  0.33897930590297665  1.0000
  H   H24       1.0  0.646296650698092  0.6738128691144577  0.6610206942214885  1.0000
  H   H25       1.0  0.39581059371790167  0.9071967008105685  0.9680291110967544  1.0000
  H   H26       1.0  0.6041894063225908  0.092803299281292  0.031970889027710815  1.0000
  H   H27       1.0  0.5530944198411253  0.6857764384767815  0.04846059836871606  1.0000
  H   H28       1.0  0.44690558019936716  0.3142235616150791  0.951539401755749  1.0000
  H   H29       1.0  0.3163593717354821  0.49356005404364134  0.8911953168785893  1.0000
  H   H30       1.0  0.6836406283050104  0.5064399460482191  0.1088046832458758  1.0000
  H   H31       1.0  0.16867168511774142  0.7233498409948171  0.8182158647514336  1.0000
  H   H32       1.0  0.831328314922751  0.2766501590970432  0.18178413537303162  1.0000
  H   H33       1.0  0.19273204918424508  0.02373777693886654  0.888236104025185  1.0000
  H   H34       1.0  0.8072679508562473  0.9762622231529939  0.11176389609928009  1.0000
  H   H35       1.0  0.07368740542209562  0.9480713566928847  0.8344211557004642  1.0000
  H   H36       1.0  0.9263125946183969  0.05192864339897595  0.16557884442400098  1.0000
  H   H37       1.0  0.503769696335387  0.8693650158203479  0.7631437454862618  1.0000
  H   H38       1.0  0.49623030370510535  0.13063498427151266  0.23685625463820328  1.0000
  H   H39       1.0  0.6318668041954323  0.9748218802976483  0.6044019944965285  1.0000
  H   H40       1.0  0.3681331959515298  0.025178120080301295  0.3955980049080226  1.0000
  H   H41       1.0  0.4853148283976612  0.1797503470879061  0.49238376156617664  1.0000
  H   H42       1.0  0.5146851704745748  0.8202496530044998  0.5076162385574055  1.0000
  H   H43       1.0  0.2046298599062949  0.2773394380994644  0.5414953285418702  1.0000
  H   H44       1.0  0.7953701401341977  0.722660561992396  0.45850467158259495  1.0000
  H   H45       1.0  0.07644401377584256  0.1736883121658172  0.702693700652062  1.0000
  H   H46       1.0  0.92355598626465  0.8263116879260435  0.29730629947240306  1.0000
  H   H47       1.0  0.24178051825350844  0.25111147916300686  0.08954520727761939  1.0000
  H   H48       1.0  0.758219481786984  0.7488885209288537  0.9104547928468457  1.0000
  H   H49       1.0  0.8622363091040997  0.6895566014260365  0.09309528181123726  1.0000
  H   H50       1.0  0.13776369093639268  0.31044339866582404  0.9069047183132279  1.0000
  C   C1        1.0  0.09200610816049976  0.37729597906428736  0.26435555416200535  1.0000
  C   C2        1.0  0.9079938918799928  0.622704021027573  0.7356444459624598  1.0000
  C   C3        1.0  0.146604549192258  0.281539774783535  0.21184347663733238  1.0000
  C   C4        1.0  0.8533954508482345  0.7184602253083255  0.7881565234871328  1.0000
  C   C5        1.0  0.11303140781274638  0.14567047154929152  0.2474724624405235  1.0000
  C   C6        1.0  0.8869685922277458  0.854329528542569  0.7525275376839416  1.0000
  C   C7        1.0  0.019971949032701566  0.108225149571983  0.3327662729540977  1.0000
  C   C8        1.0  0.980028051007791  0.8917748505198775  0.6672337271703674  1.0000
  C   C9        1.0  0.8597814369937407  0.16731639825380326  0.47502121650505097  1.0000
  C   C10       1.0  0.14021856304675187  0.8326836018380571  0.5249787836194142  1.0000
  C   C11       1.0  0.8033744500111798  0.26004130783312984  0.5286178039495362  1.0000
  C   C12       1.0  0.1966255500293127  0.7399586922587307  0.471382196174929  1.0000
  C   C13       1.0  0.8430914915662755  0.39321882442471845  0.4957279282670306  1.0000
  C   C14       1.0  0.15690850871934575  0.6067811746812082  0.5042720718528485  1.0000
  C   C15       1.0  0.9375237746978867  0.43146463151053427  0.41064229098776533  1.0000
  C   C16       1.0  0.06247622534260568  0.5685353685813264  0.5893577091366997  1.0000
  C   C17       1.0  0.9968923190024249  0.33892917594503474  0.3534319188236471  1.0000
  C   C18       1.0  0.003107681038067444  0.6610708241468257  0.6465680813008181  1.0000
  C   C19       1.0  0.9575835222292459  0.20323451915334922  0.38746574432891073  1.0000
  C   C20       1.0  0.04241647781124641  0.7967654809385114  0.6125342557955544  1.0000
  C   C21       1.0  0.13879414491011588  0.515389900834509  0.22895043333802642  1.0000
  C   C22       1.0  0.8612058552368463  0.4846100995434407  0.7710495660665246  1.0000
  C   C23       1.0  0.04655142607055957  0.6241734889417693  0.16730318028624228  1.0000
  C   C24       1.0  0.9534485739699328  0.3758265111500912  0.832696819838223  1.0000
  C   C25       1.0  0.09185047748944672  0.7560543367628775  0.13554968523024802  1.0000
  C   C26       1.0  0.9081495225510456  0.24394566332898313  0.8644503148942172  1.0000
  C   C27       1.0  0.22642909485235732  0.7792672322854923  0.16528031438922103  1.0000
  C   C28       1.0  0.7735709051881351  0.2207327678063682  0.8347196857352441  1.0000
  C   C29       1.0  0.4720002936364129  0.6899354833805056  0.25186849474329714  1.0000
  C   C30       1.0  0.5279997065105493  0.3100645169974441  0.7481315046612539  1.0000
  C   C31       1.0  0.5712473022170941  0.5815596449036304  0.3071380138237943  1.0000
  C   C32       1.0  0.42875269782339837  0.4184403551882301  0.692861986300671  1.0000
  C   C33       1.0  0.5278730899279274  0.449708263918846  0.3386391391499777  1.0000
  C   C34       1.0  0.472126910112565  0.5502917361730145  0.6613608609744875  1.0000
  C   C35       1.0  0.3869067206060164  0.42796492864785857  0.31460697239801516  1.0000
  C   C36       1.0  0.6130932796796049  0.5720350704580679  0.6853930277218641  1.0000
  C   C37       1.0  0.28263106947767125  0.5368655895604806  0.2568581230579397  1.0000
  C   C38       1.0  0.7173689305628212  0.4631344105313801  0.7431418770665253  1.0000
  C   C39       1.0  0.3269809554812789  0.6708250841995645  0.22533710238926477  1.0000
  C   C40       1.0  0.6730190448043425  0.32917491490636214  0.7746628977306144  1.0000
  C   C41       1.0  0.38346548268838376  0.8114270571214012  0.9549096287624549  1.0000
  C   C42       1.0  0.6165345174585783  0.1885729432565485  0.045090370642096124  1.0000
  C   C43       1.0  0.4692339598350943  0.6856990293882158  0.999332446222646  1.0000
  C   C44       1.0  0.5307660402053982  0.31430097070364477  0.0006675539018191738  1.0000
  C   C45       1.0  0.45128545722239877  0.5664669462550971  0.9780616179298602  1.0000
  C   C46       1.0  0.5487145428180936  0.4335330538367635  0.02193838219460485  1.0000
  C   C47       1.0  0.3395975984103004  0.5798344940124991  0.9122544262360996  1.0000
  C   C48       1.0  0.6604024016301919  0.42016550607936154  0.08774557388836562  1.0000
  C   C49       1.0  0.25529653658968554  0.7072078052045908  0.8700257949423098  1.0000
  C   C50       1.0  0.7447034634508068  0.29279219488726954  0.12997420518215538  1.0000
  C   C51       1.0  0.1965328021854804  0.9571318083070386  0.8411596278260332  1.0000
  C   C52       1.0  0.803467197855012  0.042868191784821985  0.15884037229843195  1.0000
  C   C53       1.0  0.28078231616146176  0.014909316689356474  0.7439118725593465  1.0000
  C   C54       1.0  0.7192176839855003  0.9850906836885932  0.2560881268452044  1.0000
  C   C55       1.0  0.43713719885359154  0.959475689332676  0.7156101869375586  1.0000
  C   C56       1.0  0.5628628000186446  0.04052431075972999  0.28438981318602335  1.0000
  C   C57       1.0  0.5099723013692026  0.019129290918841864  0.6252648060320953  1.0000
  C   C58       1.0  0.49002769867128976  0.9808707091730188  0.37473519409236977  1.0000
  C   C59       1.0  0.4276442051282008  0.13367439806023224  0.5625545990924835  1.0000
  C   C60       1.0  0.5723557950187614  0.8663256023177173  0.4374454003120675  1.0000
  C   C61       1.0  0.2711092810127418  0.18884235439295502  0.5903500829649379  1.0000
  C   C62       1.0  0.7288907190277508  0.8111576456989056  0.40964991715952725  1.0000
  C   C63       1.0  0.1984428143769419  0.13023086048744562  0.6807425244043694  1.0000
  C   C64       1.0  0.8015571856635504  0.869769139604415  0.3192574757200958  1.0000
  N   N1        1.0  0.27864849933694696  0.8206658766694361  0.8913889523966341  1.0000
  N   N2        1.0  0.7213515008100151  0.1793341237085137  0.10861104700791684  1.0000
  O   O1        1.0  0.2362930746098963  0.3194026586723241  0.1270322997218018  1.0000
  O   O2        1.0  0.7637069254305962  0.6805973414195364  0.8729677004026634  1.0000
  O   O3        1.0  0.9125709263797687  0.6027144696982436  0.13793331987336271  1.0000
  O   O4        1.0  0.08742907376719342  0.39728553067970607  0.8620666795311882  1.0000
  Cl  Cl1       1.0  0.2440225914317104  0.1305800017864235  0.0034917226923435393  1.0000
  Cl  Cl2       1.0  0.7559774086087822  0.869419998305437  0.9965082774321216  1.0000
