data_image0
_chemical_formula_structural       H72C48N16O12S8
_chemical_formula_sum              "H72 C48 N16 O12 S8"
_cell_length_a       8.362542203030527
_cell_length_b       10.59612801392604
_cell_length_c       17.44444737232091
_cell_angle_alpha    90.0
_cell_angle_beta     97.92590523269658
_cell_angle_gamma    90.0

_space_group_name_H-M_alt    "P 1"
_space_group_IT_number       1

loop_
  _space_group_symop_operation_xyz
  'x, y, z'

loop_
  _atom_site_type_symbol
  _atom_site_label
  _atom_site_symmetry_multiplicity
  _atom_site_fract_x
  _atom_site_fract_y
  _atom_site_fract_z
  _atom_site_occupancy
  H   H1        1.0  0.11153936168620543  0.5600638688208116  0.5828630123238041  1.0000
  H   H2        1.0  0.8884606388086398  0.0600638685341993  0.9171369875838167  1.0000
  H   H3        1.0  0.8884606383710554  0.439936131752413  0.4171369878008437  1.0000
  H   H4        1.0  0.11153936124862114  0.9399361310952842  0.08286301254083119  1.0000
  H   H5        1.0  0.18288733423646658  0.16648295279950864  0.3213815143020881  1.0000
  H   H6        1.0  0.8171126653764151  0.6664829530861209  0.1786184854658984  1.0000
  H   H7        1.0  0.8171126658139994  0.8335170468299751  0.6786184852488714  1.0000
  H   H8        1.0  0.18288733468084567  0.3335170474871036  0.8213815146587494  1.0000
  H   H9        1.0  0.1606775314421098  0.3923233981824765  0.6871642778475671  1.0000
  H   H10       1.0  0.8393224678454123  0.8923233975253478  0.8128357219834723  1.0000
  H   H11       1.0  0.839322468615151  0.6076766023907479  0.31283572227708084  1.0000
  H   H12       1.0  0.16067753220505368  0.10767660210413572  0.1871642775674872  1.0000
  H   H13       1.0  0.2491961492836171  0.246800260110396  0.660669315344199  1.0000
  H   H14       1.0  0.7508038512180228  0.7468002603970083  0.8393306851371101  1.0000
  H   H15       1.0  0.7508038507736439  0.7531997395190876  0.33933068478044887  1.0000
  H   H16       1.0  0.24919614883923796  0.25319973923247535  0.16066931498753767  1.0000
  H   H17       1.0  0.4895081898005457  0.08440783263702865  0.44694189848545246  1.0000
  H   H18       1.0  0.510491811019659  0.5844078319799  0.05305810135911553  1.0000
  H   H19       1.0  0.5104918102567152  0.9155921679361958  0.5530581016391953  1.0000
  H   H20       1.0  0.48950818903080706  0.4155921676495836  0.946941898191844  1.0000
  H   H21       1.0  0.5265563480702877  0.40228520119781114  0.4523459593664334  1.0000
  H   H22       1.0  0.47344365275671174  0.9022852014844235  0.04765404105182299  1.0000
  H   H23       1.0  0.4734436519869731  0.5977147984316724  0.5476540407582144  1.0000
  H   H24       1.0  0.5265563473005491  0.0977147990888011  0.9523459590728248  1.0000
  H   H25       1.0  0.5375340736750607  0.4729876680815063  0.3166753202731383  1.0000
  H   H26       1.0  0.4624659259378211  0.9729876674243776  0.1833246794948482  1.0000
  H   H27       1.0  0.4624659263754054  0.5270123324917183  0.6833246792778211  1.0000
  H   H28       1.0  0.5375340741194397  0.02701233220510598  0.8166753206297996  1.0000
  H   H29       1.0  0.4245756338638912  0.582490605236952  0.3642376622819319  1.0000
  H   H30       1.0  0.5754243657557854  0.08249060495033965  0.135762338059743  1.0000
  H   H31       1.0  0.5754243661933697  0.41750939533627257  0.635762337842716  1.0000
  H   H32       1.0  0.4245756343014755  0.9175093946791439  0.8642376620649049  1.0000
  H   H33       1.0  0.323266396218381  0.4741114210207262  0.29672478848195094  1.0000
  H   H34       1.0  0.6767336046086184  0.9741114213073385  0.20327521193630546  1.0000
  H   H35       1.0  0.6767336038388799  0.5258885786087574  0.7032752116426969  1.0000
  H   H36       1.0  0.3232663954486423  0.02588857832214509  0.7967247881883424  1.0000
  H   H37       1.0  0.4871792057650916  0.26551446776619114  0.27204648336770476  1.0000
  H   H38       1.0  0.51282079384779  0.7655144680528034  0.22795351640028172  1.0000
  H   H39       1.0  0.5128207930780514  0.7344855318632925  0.7279535161066731  1.0000
  H   H40       1.0  0.4871792062094708  0.23448553252042115  0.7720464837243661  1.0000
  H   H41       1.0  0.6404255717321199  0.2211481483538404  0.3492830135752382  1.0000
  H   H42       1.0  0.3595744278875567  0.7211481486404526  0.1507169867664367  1.0000
  H   H43       1.0  0.3595744283251409  0.7788518512756432  0.6507169865494096  1.0000
  H   H44       1.0  0.6404255721697042  0.27885185193277184  0.8492830133582112  1.0000
  H   H45       1.0  0.491948677428976  0.10948828368959508  0.31027177130137007  1.0000
  H   H46       1.0  0.5080513233980235  0.6094882839762074  0.18972822911688633  1.0000
  H   H47       1.0  0.5080513226282849  0.8905117168836294  0.6897282288232778  1.0000
  H   H48       1.0  0.49194867665923736  0.39051171659701717  0.8102717710077616  1.0000
  H   H49       1.0  0.20687861974926594  0.9556628588000636  0.42722312183278055  1.0000
  H   H50       1.0  0.7931213810777336  0.4556628585134514  0.07277687858547588  1.0000
  H   H51       1.0  0.7931213803079948  0.04433714177316084  0.5727768782918673  1.0000
  H   H52       1.0  0.20687861897952728  0.5443371411160322  0.927223121539172  1.0000
  H   H53       1.0  0.04268970728266245  0.8485688931072555  0.4350829896793746  1.0000
  H   H54       1.0  0.9573102935375423  0.3485688937643841  0.06491701016519337  1.0000
  H   H55       1.0  0.9573102927678036  0.15143110652222816  0.5649170098715848  1.0000
  H   H56       1.0  0.04268970651971858  0.6514311068088404  0.9350829899594546  1.0000
  H   H57       1.0  0.0023157707044438145  0.014605041558256905  0.4237539680668975  1.0000
  H   H58       1.0  0.9976842289152327  0.5146050418448691  0.07624603227477739  1.0000
  H   H59       1.0  0.9976842293528171  0.9853949580712266  0.5762460320577504  1.0000
  H   H60       1.0  0.002315771142028112  0.48539495778461444  0.9237539678498706  1.0000
  H   H61       1.0  0.1748632299884109  0.7751838010266353  0.23467018992051616  1.0000
  H   H62       1.0  0.8251367696244708  0.27518380074002313  0.26532980984747034  1.0000
  H   H63       1.0  0.8251367700688499  0.22481619954658916  0.7653298102041317  1.0000
  H   H64       1.0  0.17486323042599522  0.7248161988894605  0.7346701897034892  1.0000
  H   H65       1.0  0.1530506606814995  0.7132658184260356  0.32905764426657563  1.0000
  H   H66       1.0  0.8469493401387053  0.21326581813942339  0.17094235557799237  1.0000
  H   H67       1.0  0.8469493393689665  0.2867341821471889  0.6709423552843838  1.0000
  H   H68       1.0  0.15305065991855568  0.7867341814900602  0.8290576445466555  1.0000
  H   H69       1.0  0.3061359846649546  0.8300847940342176  0.32044113488858217  1.0000
  H   H70       1.0  0.6938640149479272  0.33008479374760535  0.17955886487940437  1.0000
  H   H71       1.0  0.6938640141781884  0.1699152065390069  0.6795588645857958  1.0000
  H   H72       1.0  0.3061359851093337  0.6699152058818781  0.8204411352452435  1.0000
  C   C1        1.0  0.2196319070808968  0.37506353686713206  0.5762382803931559  1.0000
  C   C2        1.0  0.7803680922066253  0.8750635371537444  0.9237617194378833  1.0000
  C   C3        1.0  0.7803680929695693  0.6249364637060925  0.42376171915780353  1.0000
  C   C4        1.0  0.2196319078506355  0.1249364634194802  0.07623828068676453  1.0000
  C   C5        1.0  0.2840787369090379  0.3118911469979026  0.5170936095990855  1.0000
  C   C6        1.0  0.7159212623784843  0.8118911472845148  0.9829063902319538  1.0000
  C   C7        1.0  0.7159212631414281  0.688108852631581  0.48290638995187407  1.0000
  C   C8        1.0  0.28407873767877656  0.1881088523449687  0.017093609892693973  1.0000
  C   C9        1.0  0.26514741586169716  0.3975723211783957  0.4467020529420301  1.0000
  C   C10       1.0  0.7348525837511847  0.897572321465008  0.053297946825956406  1.0000
  C   C11       1.0  0.7348525841955638  0.6024276784510879  0.5532979471826177  1.0000
  C   C12       1.0  0.2651474162992814  0.10242767910821653  0.9467020527250031  1.0000
  C   C13       1.0  0.20095843375430367  0.5194573605345288  0.4768100347054659  1.0000
  C   C14       1.0  0.799041567065901  0.0194573602479166  0.023189965139102098  1.0000
  C   C15       1.0  0.7990415663029572  0.4805426400386957  0.523189965419182  1.0000
  C   C16       1.0  0.200958432984565  0.9805426393815669  0.9768100344118574  1.0000
  C   C17       1.0  0.4200380250451599  0.3923876593917697  0.4085575189090495  1.0000
  C   C18       1.0  0.5799619745677218  0.892387659678382  0.09144248085893697  1.0000
  C   C19       1.0  0.5799619750053061  0.6076123402377138  0.59144248064191  1.0000
  C   C20       1.0  0.42003802548953906  0.10761233995110162  0.9085575192657109  1.0000
  C   C21       1.0  0.40515259559049516  0.2510615119507529  0.38321151232217077  1.0000
  C   C22       1.0  0.5948474040223865  0.7510615122373652  0.11678848744581571  1.0000
  C   C23       1.0  0.594847404459971  0.7489384886224717  0.6167884872287887  1.0000
  C   C24       1.0  0.40515259603487425  0.24893848833585935  0.883211512678832  1.0000
  C   C25       1.0  0.36939535203984514  0.19732910995903286  0.5178479738621097  1.0000
  C   C26       1.0  0.6306046484550001  0.6973291102456451  0.982152026045511  1.0000
  C   C27       1.0  0.6306046480174158  0.8026708896704507  0.4821520262625381  1.0000
  C   C28       1.0  0.3693953516022608  0.3026708903275794  0.017847974079136783  1.0000
  C   C29       1.0  0.14390334940807575  0.3266309708085184  0.3864563654374748  1.0000
  C   C30       1.0  0.856096650204806  0.8266309710951306  0.11354363433051165  1.0000
  C   C31       1.0  0.856096650649185  0.6733690288209652  0.613543634687173  1.0000
  C   C32       1.0  0.14390334984566006  0.17336902853435293  0.8864563652204478  1.0000
  C   C33       1.0  0.4262648407534126  0.48538758811147553  0.3426028879661711  1.0000
  C   C34       1.0  0.5737351600735869  0.9853875883980879  0.15739711245208526  1.0000
  C   C35       1.0  0.5737351593038483  0.514612411518008  0.6573971121584767  1.0000
  C   C36       1.0  0.4262648399836739  0.01461241123139575  0.8426028876725626  1.0000
  C   C37       1.0  0.5130433015720114  0.20939931521060307  0.32505466347861195  1.0000
  C   C38       1.0  0.4869566992549881  0.7093993145534744  0.17494533693964448  1.0000
  C   C39       1.0  0.4869566984852493  0.7906006853626214  0.674945336646036  1.0000
  C   C40       1.0  0.5130433008022728  0.2906006850760092  0.8250546631850034  1.0000
  C   C41       1.0  0.07834507437740292  0.9365507208819634  0.4089282405737275  1.0000
  C   C42       1.0  0.9216549252354789  0.4365507205953512  0.09107175919425896  1.0000
  C   C43       1.0  0.9216549256730632  0.06344927969126107  0.5910717589772319  1.0000
  C   C44       1.0  0.07834507482178199  0.5634492799778733  0.9089282409303888  1.0000
  C   C45       1.0  0.1854220414270276  0.7958639258526102  0.2965779797846934  1.0000
  C   C46       1.0  0.8145779593931771  0.295863926509739  0.20342202005987461  1.0000
  C   C47       1.0  0.8145779586302332  0.20413607377687332  0.7034220203399545  1.0000
  C   C48       1.0  0.18542204066408371  0.7041360740634856  0.7965779800647732  1.0000
  N   N1        1.0  0.17362687217284972  0.49576351975891364  0.5518522587884923  1.0000
  N   N2        1.0  0.8263731283219954  0.9957635200455259  0.9481477411191283  1.0000
  N   N3        1.0  0.8263731278844111  0.50423647987057  0.4481477413361555  1.0000
  N   N4        1.0  0.17362687173526542  0.004236479583957707  0.05185225900551941  1.0000
  N   N5        1.0  0.43493665265486264  0.17079582443903005  0.4524870478497335  1.0000
  N   N6        1.0  0.5650633469580191  0.6707958247256424  0.047512951918253055  1.0000
  N   N7        1.0  0.5650633461882804  0.8292041751904534  0.5475129516246444  1.0000
  N   N8        1.0  0.43493665309924173  0.32920417490384124  0.9524870482063947  1.0000
  N   N9        1.0  0.2333186544419733  0.2454683320720171  0.35088190033385847  1.0000
  N   N10       1.0  0.7666813451709084  0.7454683323586294  0.149118099434128  1.0000
  N   N11       1.0  0.7666813456152876  0.7545316675574665  0.6491180997907894  1.0000
  N   N12       1.0  0.23331865487955758  0.25453166821459516  0.8508819001168314  1.0000
  N   N13       1.0  0.20490274960820767  0.3353615523830725  0.6470549085500513  1.0000
  N   N14       1.0  0.7950972496793145  0.8353615517259438  0.8529450912809879  1.0000
  N   N15       1.0  0.7950972504490531  0.6646384481901519  0.3529450915745965  1.0000
  N   N16       1.0  0.20490275037794636  0.1646384479035397  0.1470549088436599  1.0000
  O   O1        1.0  0.17221841238147395  0.6200162777729402  0.44250627801238  1.0000
  O   O2        1.0  0.8277815872314078  0.12001627748632789  0.05749372175560647  1.0000
  O   O3        1.0  0.8277815876757868  0.3799837218565434  0.5574937221122679  1.0000
  O   O4        1.0  0.17221841281905825  0.8799837221431557  0.9425062777953531  1.0000
  O   O5        1.0  0.9938839172698839  0.3349393207911061  0.37559443285266114  1.0000
  O   O6        1.0  0.0061160823429978455  0.8349393210777184  0.12440556691532531  1.0000
  O   O7        1.0  0.006116082787376946  0.6650606788383774  0.6244055672719867  1.0000
  O   O8        1.0  0.9938839177074682  0.16506067855176518  0.8755944326356342  1.0000
  O   O9        1.0  0.1070755000563296  0.036554092163755124  0.27174043203235804  1.0000
  O   O10       1.0  0.892924500763875  0.5365540924503673  0.22825956781220996  1.0000
  O   O11       1.0  0.8929244999941365  0.9634459074657284  0.7282595675186014  1.0000
  O   O12       1.0  0.10707549929338572  0.4634459071791162  0.7717404323124378  1.0000
  S   S1        1.0  0.39231636442843704  0.09582742004112291  0.5948202059145495  1.0000
  S   S2        1.0  0.6076836348590852  0.5958274193839942  0.9051797939164898  1.0000
  S   S3        1.0  0.6076836356288239  0.9041725805321017  0.40517979421009837  1.0000
  S   S4        1.0  0.39231636399085273  0.40417258024548935  0.09482020613157655  1.0000
  S   S5        1.0  0.040881540027139146  0.9173625127239661  0.3056082814597515  1.0000
  S   S6        1.0  0.9591184607930656  0.4173625133810948  0.19439171838481656  1.0000
  S   S7        1.0  0.9591184600301217  0.08263748690551748  0.6943917186648964  1.0000
  S   S8        1.0  0.04088153925740048  0.5826374871921297  0.8056082811661429  1.0000
