data_image0
_chemical_formula_structural       H14C16N2O6Cl2
_chemical_formula_sum              "H14 C16 N2 O6 Cl2"
_cell_length_a       3.6751165550727385
_cell_length_b       5.992587042981026
_cell_length_c       18.611889176134067
_cell_angle_alpha    97.24949193766014
_cell_angle_beta     92.21246928717169
_cell_angle_gamma    91.23373260514721

_space_group_name_H-M_alt    "P 1"
_space_group_IT_number       1

loop_
  _space_group_symop_operation_xyz
  'x, y, z'

loop_
  _atom_site_type_symbol
  _atom_site_label
  _atom_site_symmetry_multiplicity
  _atom_site_fract_x
  _atom_site_fract_y
  _atom_site_fract_z
  _atom_site_occupancy
  H   H1        1.0  0.08748736406474338  0.9150376109657342  0.42677142981629707  1.0000
  H   H2        1.0  0.9125126375471604  0.08496238985104972  0.5732285702752874  1.0000
  H   H3        1.0  0.867520032101735  0.13524801254820695  0.39146408936246185  1.0000
  H   H4        1.0  0.13247996947031962  0.864751986600143  0.6085359107307331  1.0000
  H   H5        1.0  0.780060240326436  0.30898734633661473  0.3102876170890563  1.0000
  H   H6        1.0  0.21993976128546774  0.6910126544801691  0.6897123830025282  1.0000
  H   H7        1.0  0.5961893714695697  0.47514399192476103  0.20180615043089828  1.0000
  H   H8        1.0  0.4038106274209235  0.5248560088805846  0.7981938496603294  1.0000
  H   H9        1.0  0.9441908185969828  0.8845193766787482  0.06694834914196238  1.0000
  H   H10       1.0  0.05580918025366128  0.11548062245816335  0.9330516509508755  1.0000
  H   H11       1.0  0.12695413124107924  0.7145850118749025  0.17778087880558985  1.0000
  H   H12       1.0  0.8730458703708246  0.28541498894188144  0.8222191212859946  1.0000
  H   H13       1.0  0.36584278519583985  0.6050662831550804  0.3657296141784653  1.0000
  H   H14       1.0  0.6341572136946534  0.39493371765026536  0.6342703859127624  1.0000
  C   C1        1.0  0.9640775207162022  0.997188562519979  0.25170130724253265  1.0000
  C   C2        1.0  0.03592248085585246  0.0028114366283709166  0.7482986928506623  1.0000
  C   C3        1.0  0.8155839993498079  0.21185545754501892  0.2576885088667194  1.0000
  C   C4        1.0  0.18441599938901398  0.7881445413729855  0.7423114906840297  1.0000
  C   C5        1.0  0.7132255855621252  0.3088052230435692  0.19620138962552391  1.0000
  C   C6        1.0  0.28677441328851894  0.6911947760933423  0.8037986104673142  1.0000
  C   C7        1.0  0.7608513648952353  0.1893340375299059  0.12800638040313617  1.0000
  C   C8        1.0  0.2391486339554089  0.8106659616070055  0.8719936196897018  1.0000
  C   C9        1.0  0.9078737312277505  0.9749729629767235  0.1205214392397405  1.0000
  C   C10       1.0  0.09212626762289373  0.025027036160187834  0.8794785608530975  1.0000
  C   C11       1.0  0.009278984820286822  0.8805214203525862  0.18253241059767059  1.0000
  C   C12       1.0  0.9907210166399455  0.11947857857685654  0.8174675889534354  1.0000
  C   C13       1.0  0.07811662285521495  0.8908879150195534  0.3164467669333116  1.0000
  C   C14       1.0  0.9218833787566888  0.10911208579723047  0.683553233158273  1.0000
  C   C15       1.0  0.41724695257490335  0.5738136862220006  0.4726928511458902  1.0000
  C   C16       1.0  0.582753048925178  0.42618631437587634  0.5273071484036054  1.0000
  N   N1        1.0  0.00786380729054584  0.9908308056304475  0.3821824005041061  1.0000
  N   N2        1.0  0.9921361942095355  0.009169194967429392  0.6178175990453896  1.0000
  O   O1        1.0  0.24458942302383602  0.7055462714118464  0.30770574164894904  1.0000
  O   O2        1.0  0.755410575866657  0.29445372939349906  0.6922942584422785  1.0000
  O   O3        1.0  0.48617910959874866  0.502684747861993  0.4056354960197078  1.0000
  O   O4        1.0  0.5138208892917445  0.4973152529433526  0.5943645040715199  1.0000
  O   O5        1.0  0.23884290464449087  0.74004561784148  0.4942429559281213  1.0000
  O   O6        1.0  0.7611570968555905  0.25995438275639693  0.5057570436213743  1.0000
  Cl  Cl1       1.0  0.6347822004773399  0.3102671056551742  0.051393020255122414  1.0000
  Cl  Cl2       1.0  0.3652177984131533  0.6897328951501716  0.9486069798361054  1.0000
