data_image0
_chemical_formula_structural       H28C22N4O8Cl8
_chemical_formula_sum              "H28 C22 N4 O8 Cl8"
_cell_length_a       8.722268531697926
_cell_length_b       5.820822489935038
_cell_length_c       16.825805378070623
_cell_angle_alpha    90.0
_cell_angle_beta     110.85022101049137
_cell_angle_gamma    90.0

_space_group_name_H-M_alt    "P 1"
_space_group_IT_number       1

loop_
  _space_group_symop_operation_xyz
  'x, y, z'

loop_
  _atom_site_type_symbol
  _atom_site_label
  _atom_site_symmetry_multiplicity
  _atom_site_fract_x
  _atom_site_fract_y
  _atom_site_fract_z
  _atom_site_occupancy
  H   H1        1.0  0.5655904062640671  0.21645086449184284  0.24259586138254677  1.0000
  H   H2        1.0  0.5655904057640448  0.7835491355193175  0.7425958612883029  1.0000
  H   H3        1.0  0.7300644888241854  0.026531637112631404  0.6515426712966333  1.0000
  H   H4        1.0  0.730064488180033  0.973468362898529  0.15154267139422728  1.0000
  H   H5        1.0  0.40926004263301685  0.5903367515401332  0.5741347938139132  1.0000
  H   H6        1.0  0.4092600431330392  0.4096632484710271  0.07413479390815705  1.0000
  H   H7        1.0  0.5195184298719648  0.25778330340679156  0.6689992778369335  1.0000
  H   H8        1.0  0.5195184292278124  0.7422166966043687  0.16899927793452738  1.0000
  H   H9        1.0  0.8384252491624917  0.0847208140864477  0.5449280859178327  1.0000
  H   H10       1.0  0.8384252480756449  0.9152791859247126  0.04492808537946308  1.0000
  H   H11       1.0  0.7428546227856038  0.4036766357440018  0.4427399281222941  1.0000
  H   H12       1.0  0.7428546222855814  0.5963233642671585  0.9427399280280502  1.0000
  H   H13       1.0  0.3630440636287875  0.0029394711880641722  0.40735455790692654  1.0000
  H   H14       1.0  0.36304406312876514  0.997060528823096  0.9073545578126827  1.0000
  H   H15       1.0  0.41132247191513943  0.9338169441515922  0.5163281549328896  1.0000
  H   H16       1.0  0.4113224719724673  0.06618305585956795  0.01632815439116997  1.0000
  H   H17       1.0  0.26829525822771766  0.7622641469778815  0.4364305817871764  1.0000
  H   H18       1.0  0.26829525887187  0.2377358530332788  0.9364305816895825  1.0000
  H   H19       1.0  0.5356656317045295  0.9257488798735277  0.3513268577989046  1.0000
  H   H20       1.0  0.5356656323486818  0.07425112013763256  0.8513268577013107  1.0000
  H   H21       1.0  0.5618912223268  0.6258924570023539  0.3365120878054002  1.0000
  H   H22       1.0  0.5618912218267776  0.37410754300880644  0.8365120877111564  1.0000
  H   H23       1.0  0.7214052241592681  0.7866990322962254  0.4124423117229449  1.0000
  H   H24       1.0  0.7214052236592456  0.2133009677149348  0.9124423116287009  1.0000
  H   H25       1.0  0.09156102370520913  0.4000014850179678  0.301033127922336  1.0000
  H   H26       1.0  0.09156102320518678  0.5999985149931925  0.8010331278280921  1.0000
  H   H27       1.0  0.0680970385745956  0.10719468272377493  0.19782045096556508  1.0000
  H   H28       1.0  0.06809703921874782  0.8928053172873854  0.6978204508679711  1.0000
  C   C1        1.0  0.5687288672166173  0.5356090029185538  0.499900904351695  1.0000
  C   C2        1.0  0.5687288667165951  0.4643909970926064  0.9999009042574512  1.0000
  C   C3        1.0  0.5045915043141114  0.4853895621942479  0.5650654406813224  1.0000
  C   C4        1.0  0.5045915036699591  0.5146104378169124  0.06506544077891631  1.0000
  C   C5        1.0  0.5649683767483783  0.3032858334114398  0.6187371062818884  1.0000
  C   C6        1.0  0.5649683761042261  0.6967141665997205  0.11873710637948233  1.0000
  C   C7        1.0  0.7450680161042623  0.20457293656678566  0.5481144192419661  1.0000
  C   C8        1.0  0.7450680154601101  0.7954270634443746  0.048114419339560094  1.0000
  C   C9        1.0  0.6916460699319558  0.38404971700570595  0.4925001634526941  1.0000
  C   C10       1.0  0.6916460694319334  0.6159502830054544  0.9925001633584503  1.0000
  C   C11       1.0  0.38266987591599017  0.8610144457533412  0.45245200910421207  1.0000
  C   C12       1.0  0.38266987585866236  0.1389855542578191  0.9524520096459318  1.0000
  C   C13       1.0  0.5876724261937647  0.7656330901184615  0.38335137884148796  1.0000
  C   C14       1.0  0.587672426837917  0.23436690989269887  0.8833513787438939  1.0000
  C   C15       1.0  0.9920592486731125  0.4227460800007084  0.3256511467552953  1.0000
  C   C16       1.0  0.9920592493172647  0.577253920010452  0.8256511466577012  1.0000
  C   C17       1.0  0.8346935431960055  0.2957895302557517  0.2708584401401096  1.0000
  C   C18       1.0  0.8346935438401577  0.7042104697554087  0.7708584400425156  1.0000
  C   C19       1.0  0.16375951504912215  0.07322143232111458  0.171254343687964  1.0000
  C   C20       1.0  0.16375951454909984  0.9267785676900457  0.6712543435937202  1.0000
  C   C21       1.0  0.32746337008735504  0.17788890518314984  0.22771185008816955  1.0000
  C   C22       1.0  0.32746337073150733  0.8221110948280105  0.7277118499905756  1.0000
  N   N1        1.0  0.6836663740278142  0.1656828071406732  0.6103997613368836  1.0000
  N   N2        1.0  0.6836663733836619  0.8343171928704871  0.11039976143447759  1.0000
  N   N3        1.0  0.5165397575651751  0.7175453223701748  0.4480295109414571  1.0000
  N   N4        1.0  0.5165397570651526  0.28245467764098553  0.9480295108472131  1.0000
  O   O1        1.0  0.7113710224671479  0.31146804307035886  0.2940425611326406  1.0000
  O   O2        1.0  0.7113710219671256  0.6885319569408014  0.7940425610383968  1.0000
  O   O3        1.0  0.8447027232342412  0.1882060553975468  0.20808661199681464  1.0000
  O   O4        1.0  0.8447027238783935  0.8117939446136135  0.7080866118992206  1.0000
  O   O5        1.0  0.333304694451317  0.28562682385089444  0.29187459832789736  1.0000
  O   O6        1.0  0.33330469395129464  0.7143731761602659  0.7918745982336535  1.0000
  O   O7        1.0  0.44942083690936596  0.13982802454590632  0.20121400032270592  1.0000
  O   O8        1.0  0.44942083685203826  0.8601719754652539  0.7012140008644258  1.0000
  Cl  Cl1       1.0  0.952320284830697  0.7231612160100381  0.32550567260457985  1.0000
  Cl  Cl2       1.0  0.9523202843306746  0.2768387840011221  0.8255056725103359  1.0000
  Cl  Cl3       1.0  0.06564346681642216  0.3079529264291317  0.4309371083771647  1.0000
  Cl  Cl4       1.0  0.06564346631639986  0.6920470735820285  0.9309371082829208  1.0000
  Cl  Cl5       1.0  0.18041638564323267  0.7691822775461356  0.16438578480536956  1.0000
  Cl  Cl6       1.0  0.18041638628738493  0.23081772246502474  0.6643857847077755  1.0000
  Cl  Cl7       1.0  0.09605846817107974  0.2066131241898466  0.06872843909806675  1.0000
  Cl  Cl8       1.0  0.09605846881523213  0.7933868758213137  0.5687284390004729  1.0000
