data_image0
_chemical_formula_structural       H52C56N4O8
_chemical_formula_sum              "H52 C56 N4 O8"
_cell_length_a       8.089805513521922
_cell_length_b       10.859459117314675
_cell_length_c       13.78438413745001
_cell_angle_alpha    86.38356361416807
_cell_angle_beta     77.10061068605674
_cell_angle_gamma    70.19968833986384

_space_group_name_H-M_alt    "P 1"
_space_group_IT_number       1

loop_
  _space_group_symop_operation_xyz
  'x, y, z'

loop_
  _atom_site_type_symbol
  _atom_site_label
  _atom_site_symmetry_multiplicity
  _atom_site_fract_x
  _atom_site_fract_y
  _atom_site_fract_z
  _atom_site_occupancy
  H   H1        1.0  0.929666301608082  0.2759434984088511  0.40981316573819543  1.0000
  H   H2        1.0  0.07033369830928436  0.7240565013957176  0.5901868344599948  1.0000
  H   H3        1.0  0.12930145548589506  0.2513292335488939  0.7290884249750765  1.0000
  H   H4        1.0  0.8706985444314712  0.7486707662556747  0.2709115752231136  1.0000
  H   H5        1.0  0.8010279194691817  0.46312432578120927  0.5247762373411735  1.0000
  H   H6        1.0  0.1989720804481847  0.5368756740233593  0.4752237628570167  1.0000
  H   H7        1.0  0.26165725072512036  0.06357088800377256  0.6118486236200618  1.0000
  H   H8        1.0  0.7383427487439058  0.9364291127795961  0.38815137659161025  1.0000
  H   H9        1.0  0.43764551139401864  0.06412632129428039  0.33159893214567426  1.0000
  H   H10       1.0  0.5623544880750077  0.9358736794890882  0.6684010680659979  1.0000
  H   H11       1.0  0.18830044817361813  0.8378599564657532  0.2882125886122895  1.0000
  H   H12       1.0  0.8116995517340067  0.16214004334338067  0.7117874108615125  1.0000
  H   H13       1.0  0.16111572116486428  0.11664827735460855  0.2878249394386771  1.0000
  H   H14       1.0  0.8388842787525022  0.8833517224499601  0.712175060759513  1.0000
  H   H15       1.0  0.998255899131815  0.04486540935925014  0.343133620880252  1.0000
  H   H16       1.0  0.0017441007855513195  0.9551345904453185  0.6568663793179381  1.0000
  H   H17       1.0  0.7031866320584185  0.6463333090452685  0.7495510639924615  1.0000
  H   H18       1.0  0.296813367858948  0.3536666907593002  0.25044893620572856  1.0000
  H   H19       1.0  0.6228786602962603  0.5497700499041193  0.6824324766754483  1.0000
  H   H20       1.0  0.3771213396211062  0.45022994990044946  0.31756752352274187  1.0000
  H   H21       1.0  0.7798941345781607  0.6284111356742919  0.6178815764913569  1.0000
  H   H22       1.0  0.22010586533920562  0.3715888641302768  0.38211842370683313  1.0000
  H   H23       1.0  0.7941651711383242  0.8298238232444791  0.9596719276810468  1.0000
  H   H24       1.0  0.20583482833070177  0.17017617753888947  0.04032807253062534  1.0000
  H   H25       1.0  0.6060551433187491  0.5803659995068895  0.47745468220455906  1.0000
  H   H26       1.0  0.3939448561502771  0.4196340012764791  0.5225453180071129  1.0000
  H   H27       1.0  0.4020253265987161  0.6912620971875534  0.5469194951036909  1.0000
  H   H28       1.0  0.5979746733186503  0.30873790261701534  0.4530805050944992  1.0000
  H   H29       1.0  0.5896945079761268  0.7443784698967483  0.5031513432891067  1.0000
  H   H30       1.0  0.41030549193149796  0.25562152991238546  0.4968486561846952  1.0000
  H   H31       1.0  0.6681242252321394  0.16532541381764906  0.30607198198824265  1.0000
  H   H32       1.0  0.33187577467548524  0.8346745859914847  0.6939280174855594  1.0000
  H   H33       1.0  0.16414571734338682  0.7654013952241305  0.18134404717223418  1.0000
  H   H34       1.0  0.8358542838422858  0.2345986045799962  0.8186559528554338  1.0000
  H   H35       1.0  0.9185794592806099  0.11413907697325514  0.15566369940886543  1.0000
  H   H36       1.0  0.08142054190506248  0.8858609228308715  0.8443363006188025  1.0000
  H   H37       1.0  0.9242974308478128  0.9581044678949975  0.026934377689009997  1.0000
  H   H38       1.0  0.07570256862121348  0.04189553288837122  0.973065622522662  1.0000
  H   H39       1.0  0.6737027535684775  0.6982065791655883  0.8880752081701903  1.0000
  H   H40       1.0  0.3262972463488888  0.30179342063898046  0.11192479202799993  1.0000
  H   H41       1.0  0.4423754745498906  0.5917992745053016  0.8937317605892676  1.0000
  H   H42       1.0  0.5576245249191356  0.4082007262780671  0.10626823962240438  1.0000
  H   H43       1.0  0.18715647070906405  0.6300721904934478  0.04321066856746907  1.0000
  H   H44       1.0  0.8128435292083023  0.36992780931112085  0.9567893316307211  1.0000
  H   H45       1.0  0.6513110524413412  0.5118797153548933  0.3077566784483185  1.0000
  H   H46       1.0  0.3486889487345898  0.48812028445379846  0.6922433208549613  1.0000
  H   H47       1.0  0.9594712097068266  0.4820535661912656  0.07928598927901867  1.0000
  H   H48       1.0  0.04052879020079834  0.5179464336178682  0.9207140101947834  1.0000
  H   H49       1.0  0.8518589156372406  0.5995372041476292  0.1782309842497511  1.0000
  H   H50       1.0  0.14814108428012582  0.4004627956569395  0.8217690159484391  1.0000
  H   H51       1.0  0.7197056808954116  0.5362008548762924  0.1239776915159004  1.0000
  H   H52       1.0  0.2802943190219547  0.4637991449282763  0.8760223086822897  1.0000
  C   C1        1.0  0.10330514076051167  0.15387541630732304  0.5033039275759706  1.0000
  C   C2        1.0  0.8966948591471131  0.8461245835018107  0.4966960718978314  1.0000
  C   C3        1.0  0.179823107501961  0.04115648612622549  0.436642364335729  1.0000
  C   C4        1.0  0.8201768924154054  0.9588435136783433  0.5633576358624611  1.0000
  C   C5        1.0  0.953492633839926  0.3696868029103589  0.6357260202376882  1.0000
  C   C6        1.0  0.04650736607744037  0.6303131968942098  0.3642739799605019  1.0000
  C   C7        1.0  0.9740022771725004  0.2684709826980055  0.4797090913802169  1.0000
  C   C8        1.0  0.02599772356483191  0.7315290180849209  0.5202909086609331  1.0000
  C   C9        1.0  0.08590930681500802  0.2560464466812002  0.6591160584732235  1.0000
  C   C10       1.0  0.9140906931023582  0.7439535531233685  0.34088394172496667  1.0000
  C   C11       1.0  0.40524708210387084  0.891450396428007  0.19902638927202912  1.0000
  C   C12       1.0  0.5947529178134956  0.10854960337656157  0.8009736109261609  1.0000
  C   C13       1.0  0.4578982604994352  0.721801300393961  0.38919836539329355  1.0000
  C   C14       1.0  0.5421017394081895  0.2781986994151729  0.6108016340805085  1.0000
  C   C15       1.0  0.9001714047746462  0.3754098019888957  0.544987037899502  1.0000
  C   C16       1.0  0.09982859641102634  0.624590197815231  0.45501296212816594  1.0000
  C   C17       1.0  0.5364967068977426  0.9535879394366218  0.1903145926740343  1.0000
  C   C18       1.0  0.46350329301962373  0.046412060367946886  0.8096854075241559  1.0000
  C   C19       1.0  0.15910831162635114  0.15067938427662353  0.5935946377306761  1.0000
  C   C20       1.0  0.8408916882910152  0.8493206155279452  0.4064053624675141  1.0000
  C   C21       1.0  0.5398559030812821  0.04089172660920935  0.2630712762836293  1.0000
  C   C22       1.0  0.4601440968360841  0.9591082731953593  0.7369287239145609  1.0000
  C   C23       1.0  0.2673062053852779  0.8995732478156485  0.29510348268152814  1.0000
  C   C24       1.0  0.7326937945320886  0.10042675198892019  0.7048965175166619  1.0000
  C   C25       1.0  0.5515693559729533  0.7926659074999327  0.031136587719544227  1.0000
  C   C26       1.0  0.4484306439346713  0.2073340923092013  0.9688634117542578  1.0000
  C   C27       1.0  0.4079756222265984  0.8139978403758332  0.11893156309411265  1.0000
  C   C28       1.0  0.5920243772424277  0.18600216040753537  0.8810684371175594  1.0000
  C   C29       1.0  0.14014496245448899  0.03607528630166389  0.3354677342594645  1.0000
  C   C30       1.0  0.8598550382828434  0.9639247144812627  0.6645322657816852  1.0000
  C   C31       1.0  0.679845665886095  0.92865537783674  0.10228242472791518  1.0000
  C   C32       1.0  0.32015433485123745  0.07134462294618647  0.8977175753132347  1.0000
  C   C33       1.0  0.7383542879357649  0.5793834164459797  0.6865617088318602  1.0000
  C   C34       1.0  0.2616457119816015  0.42061658335858904  0.31343829136633006  1.0000
  C   C35       1.0  0.6849813835772636  0.8485452692439234  0.025686551179988925  1.0000
  C   C36       1.0  0.3150186176084089  0.15145473056020314  0.974313448847679  1.0000
  C   C37       1.0  0.517877471883436  0.6823718792679898  0.4851718989980607  1.0000
  C   C38       1.0  0.4821225280241888  0.317628120541144  0.5148281004757413  1.0000
  C   C39       1.0  0.6715211802399008  0.09802777177412635  0.2495303166237631  1.0000
  C   C40       1.0  0.32847881967746556  0.9019722280304423  0.750469683574427  1.0000
  C   C41       1.0  0.2774341089944664  0.7522562219044774  0.11866808517648002  1.0000
  C   C42       1.0  0.7225658909228999  0.24774377790009136  0.8813319150217102  1.0000
  C   C43       1.0  0.8145597868350797  0.06906536163490326  0.16415091276266325  1.0000
  C   C44       1.0  0.18544021435059294  0.9309346381692233  0.8358490872650047  1.0000
  C   C45       1.0  0.8172608595151988  0.9851193522239929  0.09327241169183983  1.0000
  C   C46       1.0  0.18273914040216743  0.014880647580575652  0.9067275885063504  1.0000
  C   C47       1.0  0.5603788924698556  0.7120841407439608  0.9512477412190894  1.0000
  C   C48       1.0  0.4396211069991706  0.2879158600394077  0.04875225899258271  1.0000
  C   C49       1.0  0.43280419009454374  0.6542882905529418  0.9549906340474504  1.0000
  C   C50       1.0  0.5671958093744824  0.34571171023042685  0.04500936616422167  1.0000
  C   C51       1.0  0.28930397070564723  0.6757202639658471  0.03994760983275209  1.0000
  C   C52       1.0  0.710696030031685  0.3242797368170796  0.9600523902083977  1.0000
  C   C53       1.0  0.8747433215868419  0.40119898429358375  0.21892817557043845  1.0000
  C   C54       1.0  0.12525667914074895  0.5988010164939079  0.7810718237463232  1.0000
  C   C55       1.0  0.8501533095216223  0.5109374269013418  0.14510999966027996  1.0000
  C   C56       1.0  0.14984669039574433  0.4890625729032268  0.8548900005379101  1.0000
  N   N1        1.0  0.35152985130768544  0.8465587666494522  0.3820542077762652  1.0000
  N   N2        1.0  0.6484701485999395  0.15344123315968147  0.6179457916975368  1.0000
  N   N3        1.0  0.29504114157854977  0.9332236897910198  0.46072874851852175  1.0000
  N   N4        1.0  0.704958858329075  0.0667763100181139  0.5392712509552803  1.0000
  O   O1        1.0  0.8853017707554103  0.4679112588614131  0.7046450823360234  1.0000
  O   O2        1.0  0.1146982291619563  0.5320887409431555  0.2953549178621667  1.0000
  O   O3        1.0  0.4999897017995355  0.6440785621147872  0.31660467938514464  1.0000
  O   O4        1.0  0.5000102981080893  0.35592143769434664  0.6833953200886574  1.0000
  O   O5        1.0  0.7482782304161463  0.4204710003794605  0.30346266138573547  1.0000
  O   O6        1.0  0.2517217695012199  0.5795289994251082  0.6965373388124546  1.0000
  O   O7        1.0  0.0017064750330620818  0.29771164553064317  0.20453724219161298  1.0000
  O   O8        1.0  0.9982935257042704  0.7022883552522834  0.7954627578495368  1.0000
