data_image0
_chemical_formula_structural       H88C80O12S64Br4
_chemical_formula_sum              "H88 C80 O12 S64 Br4"
_cell_length_a       32.64004056944525
_cell_length_b       6.528407834597382
_cell_length_c       15.164649076031242
_cell_angle_alpha    90.0
_cell_angle_beta     90.0
_cell_angle_gamma    90.0

_space_group_name_H-M_alt    "P 1"
_space_group_IT_number       1

loop_
  _space_group_symop_operation_xyz
  'x, y, z'

loop_
  _atom_site_type_symbol
  _atom_site_label
  _atom_site_symmetry_multiplicity
  _atom_site_fract_x
  _atom_site_fract_y
  _atom_site_fract_z
  _atom_site_occupancy
  H   H1        1.0  0.20637960745385464  0.7246082674140624  0.4218546745081845  1.0000
  H   H2        1.0  0.2936203924014573  0.27539173341349277  0.4218546745081845  1.0000
  H   H3        1.0  0.7063796076155388  0.27539173341349277  0.07814532562267111  1.0000
  H   H4        1.0  0.7936203925631414  0.7246082674140624  0.07814532562267111  1.0000
  H   H5        1.0  0.7936203925631414  0.27539173341349277  0.5781453257535267  1.0000
  H   H6        1.0  0.7063796076155388  0.7246082674140624  0.5781453257535267  1.0000
  H   H7        1.0  0.2936203924014573  0.7246082674140624  0.9218546739796117  1.0000
  H   H8        1.0  0.20637960745385464  0.27539173341349277  0.9218546739796117  1.0000
  H   H9        1.0  0.18017214401090897  0.8972957079911456  0.3492417960644333  1.0000
  H   H10       1.0  0.31982785615077514  0.10270429130464252  0.3492417960644333  1.0000
  H   H11       1.0  0.6801721438662209  0.10270429130464252  0.15075820406642226  1.0000
  H   H12       1.0  0.8198278560060871  0.8972957079911456  0.15075820406642226  1.0000
  H   H13       1.0  0.8198278560060871  0.10270429130464252  0.6507582041972778  1.0000
  H   H14       1.0  0.6801721438662209  0.8972957079911456  0.6507582041972778  1.0000
  H   H15       1.0  0.31982785615077514  0.8972957079911456  0.8492417955358605  1.0000
  H   H16       1.0  0.18017214401090897  0.10270429130464252  0.8492417955358605  1.0000
  H   H17       1.0  0.22271551760278807  0.09551970339464215  0.4580833216232935  1.0000
  H   H18       1.0  0.27728448225252383  0.9044802974329129  0.4580833216232935  1.0000
  H   H19       1.0  0.7227155177644722  0.9044802974329129  0.0419166778481337  1.0000
  H   H20       1.0  0.777284482414208  0.09551970339464215  0.0419166778481337  1.0000
  H   H21       1.0  0.777284482414208  0.9044802974329129  0.5419166779789892  1.0000
  H   H22       1.0  0.7227155177644722  0.09551970339464215  0.5419166779789892  1.0000
  H   H23       1.0  0.27728448225252383  0.09551970339464215  0.9580833217541491  1.0000
  H   H24       1.0  0.22271551760278807  0.9044802974329129  0.9580833217541491  1.0000
  H   H25       1.0  0.19774304802923529  0.9740834612536401  0.5485776102230234  1.0000
  H   H26       1.0  0.30225695182607665  0.025916538042147982  0.5485776102230234  1.0000
  H   H27       1.0  0.6977430481909194  0.025916538042147982  0.9514223901695432  1.0000
  H   H28       1.0  0.8022569519877607  0.9740834612536401  0.9514223901695432  1.0000
  H   H29       1.0  0.8022569519877607  0.025916538042147982  0.45142239003868767  1.0000
  H   H30       1.0  0.6977430481909194  0.9740834612536401  0.45142239003868767  1.0000
  H   H31       1.0  0.30225695182607665  0.9740834612536401  0.048577610092167905  1.0000
  H   H32       1.0  0.19774304802923529  0.025916538042147982  0.048577610092167905  1.0000
  H   H33       1.0  0.7856555669849721  0.22492409745270736  0.1884296514659495  1.0000
  H   H34       1.0  0.7143444328873358  0.7750759033748478  0.1884296514659495  1.0000
  H   H35       1.0  0.2856555671296602  0.7750759033748478  0.31157034866490607  1.0000
  H   H36       1.0  0.2143444327256517  0.22492409745270736  0.31157034866490607  1.0000
  H   H37       1.0  0.2143444327256517  0.7750759033748478  0.8115703487957617  1.0000
  H   H38       1.0  0.2856555671296602  0.22492409745270736  0.8115703487957617  1.0000
  H   H39       1.0  0.7143444328873358  0.22492409745270736  0.6884296509373767  1.0000
  H   H40       1.0  0.7856555669849721  0.7750759033748478  0.6884296509373767  1.0000
  H   H41       1.0  0.8121124449463428  0.29123428685384145  0.32284383011131895  1.0000
  H   H42       1.0  0.6878875549259651  0.7087657139737137  0.32284383011131895  1.0000
  H   H43       1.0  0.31211244509103087  0.7087657139737137  0.17715617001953665  1.0000
  H   H44       1.0  0.18788755476428107  0.29123428685384145  0.17715617001953665  1.0000
  H   H45       1.0  0.18788755476428107  0.7087657139737137  0.6771561701503922  1.0000
  H   H46       1.0  0.31211244509103087  0.29123428685384145  0.6771561701503922  1.0000
  H   H47       1.0  0.6878875549259651  0.29123428685384145  0.8228438302421746  1.0000
  H   H48       1.0  0.8121124449463428  0.7087657139737137  0.8228438302421746  1.0000
  H   H49       1.0  0.8378729423394466  0.6127425555126491  0.26589753312348213  1.0000
  H   H50       1.0  0.6621270575328613  0.3872574453149061  0.26589753312348213  1.0000
  H   H51       1.0  0.33787294248413474  0.3872574453149061  0.23410246700737344  1.0000
  H   H52       1.0  0.16212705767754934  0.6127425555126491  0.23410246700737344  1.0000
  H   H53       1.0  0.16212705767754934  0.3872574453149061  0.734102467138229  1.0000
  H   H54       1.0  0.33787294248413474  0.6127425555126491  0.734102467138229  1.0000
  H   H55       1.0  0.6621270575328613  0.6127425555126491  0.7658975325949093  1.0000
  H   H56       1.0  0.8378729423394466  0.3872574453149061  0.7658975325949093  1.0000
  H   H57       1.0  0.8775571512865563  0.47175321732790243  0.20808223086332228  1.0000
  H   H58       1.0  0.6224428485857516  0.5282467819678857  0.20808223086332228  1.0000
  H   H59       1.0  0.3775571514312444  0.5282467819678857  0.2919177692675333  1.0000
  H   H60       1.0  0.12244284842406755  0.47175321732790243  0.2919177692675333  1.0000
  H   H61       1.0  0.12244284842406755  0.5282467819678857  0.7919177693983889  1.0000
  H   H62       1.0  0.3775571514312444  0.47175321732790243  0.7919177693983889  1.0000
  H   H63       1.0  0.6224428485857516  0.47175321732790243  0.7080822303347495  1.0000
  H   H64       1.0  0.8775571512865563  0.5282467819678857  0.7080822303347495  1.0000
  H   H65       1.0  0.22316057771137135  0.2984332258893189  0.3460065533790259  1.0000
  H   H66       1.0  0.27683942245031273  0.7015667749382362  0.3460065533790259  1.0000
  H   H67       1.0  0.7231605775666833  0.7015667749382362  0.15399344675182966  1.0000
  H   H68       1.0  0.7768394223056246  0.2984332258893189  0.15399344675182966  1.0000
  H   H69       1.0  0.7768394223056246  0.7015667749382362  0.6539934468826852  1.0000
  H   H70       1.0  0.7231605775666833  0.2984332258893189  0.6539934468826852  1.0000
  H   H71       1.0  0.27683942245031273  0.2984332258893189  0.8460065528504531  1.0000
  H   H72       1.0  0.22316057771137135  0.7015667749382362  0.8460065528504531  1.0000
  H   H73       1.0  0.2435696225035397  0.5481262814244333  0.21875210783764304  1.0000
  H   H74       1.0  0.2564303776581444  0.4518737194031219  0.21875210783764304  1.0000
  H   H75       1.0  0.7435696223588516  0.4518737194031219  0.28124789163378416  1.0000
  H   H76       1.0  0.7564303775134563  0.5481262814244333  0.28124789163378416  1.0000
  H   H77       1.0  0.7564303775134563  0.4518737194031219  0.7812478917646397  1.0000
  H   H78       1.0  0.7435696223588516  0.5481262814244333  0.7812478917646397  1.0000
  H   H79       1.0  0.2564303776581444  0.5481262814244333  0.7187521079684986  1.0000
  H   H80       1.0  0.2435696225035397  0.4518737194031219  0.7187521079684986  1.0000
  H   H81       1.0  0.2056462180467836  0.9777873827322975  0.22582306077973796  1.0000
  H   H82       1.0  0.2943537821149005  0.022212616563490658  0.22582306077973796  1.0000
  H   H83       1.0  0.7056462179020956  0.022212616563490658  0.27417693869168924  1.0000
  H   H84       1.0  0.7943537819702124  0.9777873827322975  0.27417693869168924  1.0000
  H   H85       1.0  0.7943537819702124  0.022212616563490658  0.7741769388225449  1.0000
  H   H86       1.0  0.7056462179020956  0.9777873827322975  0.7741769388225449  1.0000
  H   H87       1.0  0.2943537821149005  0.9777873827322975  0.7258230609105935  1.0000
  H   H88       1.0  0.2056462180467836  0.022212616563490658  0.7258230609105935  1.0000
  C   C1        1.0  0.03651571074074364  0.13361984607902452  0.40047284111564685  1.0000
  C   C2        1.0  0.4634842891145683  0.8663801532167635  0.40047284111564685  1.0000
  C   C3        1.0  0.5365157109024277  0.8663801532167635  0.09952715901520875  1.0000
  C   C4        1.0  0.9634842892762524  0.13361984607902452  0.09952715901520875  1.0000
  C   C5        1.0  0.9634842892762524  0.8663801532167635  0.5995271591460644  1.0000
  C   C6        1.0  0.5365157109024277  0.13361984607902452  0.5995271591460644  1.0000
  C   C7        1.0  0.4634842891145683  0.13361984607902452  0.9004728412465025  1.0000
  C   C8        1.0  0.03651571074074364  0.8663801532167635  0.9004728412465025  1.0000
  C   C9        1.0  0.9973696534088986  0.19089649445542922  0.3781635988572998  1.0000
  C   C10       1.0  0.5026303467697815  0.8091035063721259  0.3781635988572998  1.0000
  C   C11       1.0  0.49736965324721455  0.8091035063721259  0.12183640127355583  1.0000
  C   C12       1.0  0.0026303466080973437  0.19089649445542922  0.12183640127355583  1.0000
  C   C13       1.0  0.0026303466080973437  0.8091035063721259  0.6218364014044114  1.0000
  C   C14       1.0  0.49736965324721455  0.19089649445542922  0.6218364014044114  1.0000
  C   C15       1.0  0.5026303467697815  0.19089649445542922  0.8781635989881553  1.0000
  C   C16       1.0  0.9973696534088986  0.8091035063721259  0.8781635989881553  1.0000
  C   C17       1.0  0.10283807591655361  0.933096172043253  0.43443782160531064  1.0000
  C   C18       1.0  0.3971619242451305  0.0669038272525351  0.43443782160531064  1.0000
  C   C19       1.0  0.6028380757718655  0.0669038272525351  0.06556217852554491  1.0000
  C   C20       1.0  0.8971619241004425  0.933096172043253  0.06556217852554491  1.0000
  C   C21       1.0  0.8971619241004425  0.0669038272525351  0.5655621786564006  1.0000
  C   C22       1.0  0.6028380757718655  0.933096172043253  0.5655621786564006  1.0000
  C   C23       1.0  0.3971619242451305  0.933096172043253  0.9344378210767379  1.0000
  C   C24       1.0  0.10283807591655361  0.0669038272525351  0.9344378210767379  1.0000
  C   C25       1.0  0.11298675018965149  0.13484713000536552  0.44788451918318606  1.0000
  C   C26       1.0  0.3870132496656605  0.8651528692904227  0.44788451918318606  1.0000
  C   C27       1.0  0.6129867503513355  0.8651528692904227  0.05211548028824112  1.0000
  C   C28       1.0  0.8870132498273445  0.13484713000536552  0.05211548028824112  1.0000
  C   C29       1.0  0.8870132498273445  0.8651528692904227  0.5521154804190967  1.0000
  C   C30       1.0  0.6129867503513355  0.13484713000536552  0.5521154804190967  1.0000
  C   C31       1.0  0.3870132496656605  0.13484713000536552  0.9478845193140417  1.0000
  C   C32       1.0  0.11298675018965149  0.8651528692904227  0.9478845193140417  1.0000
  C   C33       1.0  0.9214215685795993  0.19747636677473407  0.32585417804427275  1.0000
  C   C34       1.0  0.5785784315990808  0.802523634052821  0.32585417804427275  1.0000
  C   C35       1.0  0.4214215684179153  0.802523634052821  0.17414582208658289  1.0000
  C   C36       1.0  0.07857843143739669  0.19747636677473407  0.17414582208658289  1.0000
  C   C37       1.0  0.07857843143739669  0.802523634052821  0.6741458222174385  1.0000
  C   C38       1.0  0.4214215684179153  0.19747636677473407  0.6741458222174385  1.0000
  C   C39       1.0  0.5785784315990808  0.19747636677473407  0.8258541781751283  1.0000
  C   C40       1.0  0.9214215685795993  0.802523634052821  0.8258541781751283  1.0000
  C   C41       1.0  0.9318438013362108  0.39560542255235465  0.3460017421895527  1.0000
  C   C42       1.0  0.5681561988424694  0.6043945782752005  0.3460017421895527  1.0000
  C   C43       1.0  0.43184380117452675  0.6043945782752005  0.15399825794130292  1.0000
  C   C44       1.0  0.06815619868078521  0.39560542255235465  0.15399825794130292  1.0000
  C   C45       1.0  0.06815619868078521  0.6043945782752005  0.6539982580721585  1.0000
  C   C46       1.0  0.43184380117452675  0.39560542255235465  0.6539982580721585  1.0000
  C   C47       1.0  0.5681561988424694  0.39560542255235465  0.8460017423204083  1.0000
  C   C48       1.0  0.9318438013362108  0.6043945782752005  0.8460017423204083  1.0000
  C   C49       1.0  0.18306930554472525  0.8482759487928851  0.4182328834779647  1.0000
  C   C50       1.0  0.3169306946169589  0.1517240520346699  0.4182328834779647  1.0000
  C   C51       1.0  0.6830693054000372  0.1517240520346699  0.08176711665289085  1.0000
  C   C52       1.0  0.8169306944722708  0.8482759487928851  0.08176711665289085  1.0000
  C   C53       1.0  0.8169306944722708  0.1517240520346699  0.5817671167837464  1.0000
  C   C54       1.0  0.6830693054000372  0.8482759487928851  0.5817671167837464  1.0000
  C   C55       1.0  0.3169306946169589  0.8482759487928851  0.9182328836088203  1.0000
  C   C56       1.0  0.18306930554472525  0.1517240520346699  0.9182328836088203  1.0000
  C   C57       1.0  0.19417001662469796  0.021822190587574713  0.4796606854224455  1.0000
  C   C58       1.0  0.30582998323061394  0.9781778087082134  0.4796606854224455  1.0000
  C   C59       1.0  0.6941700164800099  0.9781778087082134  0.02033931470841011  1.0000
  C   C60       1.0  0.8058299833922982  0.021822190587574713  0.02033931470841011  1.0000
  C   C61       1.0  0.8058299833922982  0.9781778087082134  0.5203393148392657  1.0000
  C   C62       1.0  0.6941700164800099  0.021822190587574713  0.5203393148392657  1.0000
  C   C63       1.0  0.30582998323061394  0.021822190587574713  0.9796606855533011  1.0000
  C   C64       1.0  0.19417001662469796  0.9781778087082134  0.9796606855533011  1.0000
  C   C65       1.0  0.8444680465808768  0.299558434391317  0.3055816021040943  1.0000
  C   C66       1.0  0.6555319532914312  0.7004415664362382  0.3055816021040943  1.0000
  C   C67       1.0  0.3444680467255649  0.7004415664362382  0.1944183980267613  1.0000
  C   C68       1.0  0.1555319534361192  0.299558434391317  0.1944183980267613  1.0000
  C   C69       1.0  0.1555319534361192  0.7004415664362382  0.6944183974981885  1.0000
  C   C70       1.0  0.3444680467255649  0.299558434391317  0.6944183974981885  1.0000
  C   C71       1.0  0.6555319532914312  0.299558434391317  0.8055816022349499  1.0000
  C   C72       1.0  0.8444680465808768  0.7004415664362382  0.8055816022349499  1.0000
  C   C73       1.0  0.8613929988898251  0.4924092874473815  0.27107118861703433  1.0000
  C   C74       1.0  0.6386070009824828  0.5075907118484065  0.27107118861703433  1.0000
  C   C75       1.0  0.36139299872814107  0.5075907118484065  0.22892881085439287  1.0000
  C   C76       1.0  0.13860700112717084  0.4924092874473815  0.22892881085439287  1.0000
  C   C77       1.0  0.13860700112717084  0.5075907118484065  0.7289288109852484  1.0000
  C   C78       1.0  0.36139299872814107  0.4924092874473815  0.7289288109852484  1.0000
  C   C79       1.0  0.6386070009824828  0.4924092874473815  0.7710711887478899  1.0000
  C   C80       1.0  0.8613929988898251  0.5075907118484065  0.7710711887478899  1.0000
  O   O1        1.0  0.24999999992765598  0.5000000004137776  0.4297138534052666  1.0000
  O   O2        1.0  0.7500000000893401  0.5000000004137776  0.07028614672558903  1.0000
  O   O3        1.0  0.7500000000893401  0.5000000004137776  0.5702861461970162  1.0000
  O   O4        1.0  0.24999999992765598  0.5000000004137776  0.9297138535361222  1.0000
  O   O5        1.0  0.3161477688131251  0.08535481301381738  0.19104943975124475  1.0000
  O   O6        1.0  0.18385223134855902  0.9146451878137378  0.19104943975124475  1.0000
  O   O7        1.0  0.8161477686684371  0.9146451878137378  0.3089505597201824  1.0000
  O   O8        1.0  0.683852231203871  0.08535481301381738  0.3089505597201824  1.0000
  O   O9        1.0  0.683852231203871  0.9146451878137378  0.8089505598510381  1.0000
  O   O10       1.0  0.8161477686684371  0.08535481301381738  0.8089505598510381  1.0000
  O   O11       1.0  0.18385223134855902  0.08535481301381738  0.6910494398821003  1.0000
  O   O12       1.0  0.3161477688131251  0.9146451878137378  0.6910494398821003  1.0000
  S   S1        1.0  0.05371403862902117  0.8825063439614771  0.3946956075271378  1.0000
  S   S2        1.0  0.4462859612262908  0.11749365686607798  0.3946956075271378  1.0000
  S   S3        1.0  0.5537140387907052  0.11749365686607798  0.10530439194428941  1.0000
  S   S4        1.0  0.9462859613879748  0.8825063439614771  0.10530439194428941  1.0000
  S   S5        1.0  0.9462859613879748  0.11749365686607798  0.605304392075145  1.0000
  S   S6        1.0  0.5537140387907052  0.8825063439614771  0.605304392075145  1.0000
  S   S7        1.0  0.4462859612262908  0.8825063439614771  0.8946956076579935  1.0000
  S   S8        1.0  0.05371403862902117  0.11749365686607798  0.8946956076579935  1.0000
  S   S9        1.0  0.07393466606959599  0.31289668350291994  0.4277427890007995  1.0000
  S   S10       1.0  0.42606533409208813  0.6871033173246353  0.4277427890007995  1.0000
  S   S11       1.0  0.5739346659249079  0.6871033173246353  0.07225721113005613  1.0000
  S   S12       1.0  0.9260653339474  0.31289668350291994  0.07225721113005613  1.0000
  S   S13       1.0  0.9260653339474  0.6871033173246353  0.5722572112609117  1.0000
  S   S14       1.0  0.5739346659249079  0.31289668350291994  0.5722572112609117  1.0000
  S   S15       1.0  0.42606533409208813  0.31289668350291994  0.9277427884722267  1.0000
  S   S16       1.0  0.07393466606959599  0.6871033173246353  0.9277427884722267  1.0000
  S   S17       1.0  0.9612015485473776  0.019227476772327185  0.33678985147585344  1.0000
  S   S18       1.0  0.5387984516313026  0.980772524055228  0.33678985147585344  1.0000
  S   S19       1.0  0.46120154838569344  0.980772524055228  0.1632101479955738  1.0000
  S   S20       1.0  0.03879845146961849  0.019227476772327185  0.1632101479955738  1.0000
  S   S21       1.0  0.03879845146961849  0.980772524055228  0.6632101481264293  1.0000
  S   S22       1.0  0.46120154838569344  0.019227476772327185  0.6632101481264293  1.0000
  S   S23       1.0  0.5387984516313026  0.019227476772327185  0.836789851606709  1.0000
  S   S24       1.0  0.9612015485473776  0.980772524055228  0.836789851606709  1.0000
  S   S25       1.0  0.9819227210153165  0.44613410402532266  0.37941213681588176  1.0000
  S   S26       1.0  0.5180772791633635  0.5538658952704655  0.37941213681588176  1.0000
  S   S27       1.0  0.48192272085363247  0.5538658952704655  0.12058786331497386  1.0000
  S   S28       1.0  0.018077279001679512  0.44613410402532266  0.12058786331497386  1.0000
  S   S29       1.0  0.018077279001679512  0.5538658952704655  0.6205878634458294  1.0000
  S   S30       1.0  0.48192272085363247  0.44613410402532266  0.6205878634458294  1.0000
  S   S31       1.0  0.5180772791633635  0.44613410402532266  0.8794121369467374  1.0000
  S   S32       1.0  0.9819227210153165  0.5538658952704655  0.8794121369467374  1.0000
  S   S33       1.0  0.13523434355446395  0.7255114279011804  0.4488732502724995  1.0000
  S   S34       1.0  0.364765656300848  0.2744885713946077  0.4488732502724995  1.0000
  S   S35       1.0  0.6352343437161481  0.2744885713946077  0.05112674985835608  1.0000
  S   S36       1.0  0.8647656564625321  0.7255114279011804  0.05112674985835608  1.0000
  S   S37       1.0  0.8647656564625321  0.2744885713946077  0.5511267493297832  1.0000
  S   S38       1.0  0.6352343437161481  0.7255114279011804  0.5511267493297832  1.0000
  S   S39       1.0  0.364765656300848  0.7255114279011804  0.9488732504033551  1.0000
  S   S40       1.0  0.13523434355446395  0.2744885713946077  0.9488732504033551  1.0000
  S   S41       1.0  0.15912150749168852  0.23941061735099012  0.4805843533510452  1.0000
  S   S42       1.0  0.3408784923636234  0.760589383476565  0.4805843533510452  1.0000
  S   S43       1.0  0.6591215076533726  0.760589383476565  0.01941564677981035  1.0000
  S   S44       1.0  0.8408784925253076  0.23941061735099012  0.01941564677981035  1.0000
  S   S45       1.0  0.8408784925253076  0.760589383476565  0.519415646910666  1.0000
  S   S46       1.0  0.6591215076533726  0.23941061735099012  0.519415646910666  1.0000
  S   S47       1.0  0.3408784923636234  0.23941061735099012  0.9805843528224725  1.0000
  S   S48       1.0  0.15912150749168852  0.760589383476565  0.9805843528224725  1.0000
  S   S49       1.0  0.8697237912312583  0.08165615621850565  0.3203194967219954  1.0000
  S   S50       1.0  0.6302762086410497  0.9183438446090495  0.3203194967219954  1.0000
  S   S51       1.0  0.36972379137594635  0.9183438446090495  0.17968050274943181  1.0000
  S   S52       1.0  0.13027620878573776  0.08165615621850565  0.17968050274943181  1.0000
  S   S53       1.0  0.13027620878573776  0.9183438446090495  0.6796805028802874  1.0000
  S   S54       1.0  0.36972379137594635  0.08165615621850565  0.6796805028802874  1.0000
  S   S55       1.0  0.6302762086410497  0.08165615621850565  0.820319496852851  1.0000
  S   S56       1.0  0.8697237912312583  0.9183438446090495  0.820319496852851  1.0000
  S   S57       1.0  0.8981460959776696  0.5980219310610477  0.34936461262224894  1.0000
  S   S58       1.0  0.6018539038946384  0.4019780697665074  0.34936461262224894  1.0000
  S   S59       1.0  0.39814609612235763  0.4019780697665074  0.15063538750860667  1.0000
  S   S60       1.0  0.1018539040393265  0.5980219310610477  0.15063538750860667  1.0000
  S   S61       1.0  0.1018539040393265  0.4019780697665074  0.6506353876394623  1.0000
  S   S62       1.0  0.39814609612235763  0.5980219310610477  0.6506353876394623  1.0000
  S   S63       1.0  0.6018539038946384  0.5980219310610477  0.8493646127531045  1.0000
  S   S64       1.0  0.8981460959776696  0.4019780697665074  0.8493646127531045  1.0000
  Br  Br1       1.0  0.24999999992765598  0.5000000004137776  0.0492231528904825  1.0000
  Br  Br2       1.0  0.7500000000893401  0.5000000004137776  0.4507768472403731  1.0000
  Br  Br3       1.0  0.7500000000893401  0.5000000004137776  0.9507768467118003  1.0000
  Br  Br4       1.0  0.24999999992765598  0.5000000004137776  0.5492231530213382  1.0000
