data_image0
_chemical_formula_structural       H44C44N4O24
_chemical_formula_sum              "H44 C44 N4 O24"
_cell_length_a       8.087814676363532
_cell_length_b       12.262989458666233
_cell_length_c       11.177414902458615
_cell_angle_alpha    90.0
_cell_angle_beta     90.9131006905712
_cell_angle_gamma    90.0

_space_group_name_H-M_alt    "P 1"
_space_group_IT_number       1

loop_
  _space_group_symop_operation_xyz
  'x, y, z'

loop_
  _atom_site_type_symbol
  _atom_site_label
  _atom_site_symmetry_multiplicity
  _atom_site_fract_x
  _atom_site_fract_y
  _atom_site_fract_z
  _atom_site_occupancy
  H   H1        1.0  0.31221458077539443  0.17825978790637864  0.9039827809375629  1.0000
  H   H2        1.0  0.6877854189428576  0.6782597879607605  0.59601721932691  1.0000
  H   H3        1.0  0.6877854188810734  0.8217402122023849  0.09601721947548646  1.0000
  H   H4        1.0  0.31221458071453106  0.32174021214800314  0.403982780191489  1.0000
  H   H5        1.0  0.48930654373813853  0.3368600612374083  0.9539794318696265  1.0000
  H   H6        1.0  0.5106934559801136  0.8368600612917902  0.5460205683948463  1.0000
  H   H7        1.0  0.5106934559192502  0.6631399388713553  0.04602056764877245  1.0000
  H   H8        1.0  0.48930654367635423  0.16313993881697347  0.453979432018203  1.0000
  H   H9        1.0  0.4421837640718463  0.031898139627247524  0.24405200229312454  1.0000
  H   H10       1.0  0.5578162355237583  0.5318981396816294  0.25594799737385093  1.0000
  H   H11       1.0  0.5578162355855425  0.9681018604815161  0.7559479972252745  1.0000
  H   H12       1.0  0.44218376413363053  0.46810186042713425  0.7440520021445479  1.0000
  H   H13       1.0  0.6264133961426913  0.18591455351768416  0.2892185471066737  1.0000
  H   H14       1.0  0.37358660345291317  0.685914553572066  0.21078145256030176  1.0000
  H   H15       1.0  0.3735866035137765  0.8140854457756176  0.7107814533063757  1.0000
  H   H16       1.0  0.6264133962044756  0.3140854457212358  0.7892185469580973  1.0000
  H   H17       1.0  0.2811395655861323  0.9133925025177551  0.19314259942528572  1.0000
  H   H18       1.0  0.7188604340094722  0.41339250246337317  0.3068574002416898  1.0000
  H   H19       1.0  0.7188604340712564  0.08660749759100864  0.8068574000931132  1.0000
  H   H20       1.0  0.2811395656479165  0.5866074976453904  0.6931425992767092  1.0000
  H   H21       1.0  0.15342000517419235  0.8569942594685253  0.08113034977882588  1.0000
  H   H22       1.0  0.8465799944214121  0.35699425941414353  0.4188696498881496  1.0000
  H   H23       1.0  0.8465799944831963  0.14300574064023835  0.9188696497395731  1.0000
  H   H24       1.0  0.1534200052359766  0.6430057406946201  0.5811303496302495  1.0000
  H   H25       1.0  0.6841720254569058  0.4055843240153087  0.08084692676372844  1.0000
  H   H26       1.0  0.3158279741377778  0.9055843240696905  0.4191530737978974  1.0000
  H   H27       1.0  0.3158279741995621  0.5944156760934549  0.919153073649321  1.0000
  H   H28       1.0  0.6841720255186899  0.09441567603907315  0.5808469266151519  1.0000
  H   H29       1.0  0.9184992551067668  0.7088754735784853  0.714142245558366  1.0000
  H   H30       1.0  0.08150074461148533  0.2088754735241036  0.7858577547061069  1.0000
  H   H31       1.0  0.08150074454970109  0.2911245265302782  0.2858577548546833  1.0000
  H   H32       1.0  0.9184992550449825  0.79112452658466  0.21414224570694257  1.0000
  H   H33       1.0  0.776049730414963  0.5491762912052991  0.7645868668890506  1.0000
  H   H34       1.0  0.22395026930328918  0.04917629115091726  0.7354131333754222  1.0000
  H   H35       1.0  0.22395026924150493  0.45082370890346457  0.23541313352399867  1.0000
  H   H36       1.0  0.7760497303531787  0.9508237089578463  0.2645868670376272  1.0000
  H   H37       1.0  0.9404465063836186  0.6536279295531409  0.036296505911214166  1.0000
  H   H38       1.0  0.05955349444764964  0.15362792949875895  0.463703494665337  1.0000
  H   H39       1.0  0.05955349450943388  0.3463720705556229  0.9637034945167605  1.0000
  H   H40       1.0  0.940446506445403  0.8463720706100046  0.5362965057626377  1.0000
  H   H41       1.0  0.10742357128372786  0.9191261362485018  0.8878417586292078  1.0000
  H   H42       1.0  0.8925764284345243  0.41912613619411987  0.6121582416352651  1.0000
  H   H43       1.0  0.8925764283727401  0.08087386386026192  0.11215824178384162  1.0000
  H   H44       1.0  0.10742357122286447  0.5808738639146438  0.3878417578831339  1.0000
  C   C1        1.0  0.3786138445111712  0.18093077283304781  0.9893228414354536  1.0000
  C   C2        1.0  0.6213861564436656  0.6809307728874295  0.5106771588439445  1.0000
  C   C3        1.0  0.6213861563828021  0.8190692272757158  0.010677158097870605  1.0000
  C   C4        1.0  0.378613844449387  0.319069227221334  0.4893228415840302  1.0000
  C   C5        1.0  0.36113523977124273  0.09431487435411968  0.07042559854131966  1.0000
  C   C6        1.0  0.6388647598243617  0.5943148744085015  0.42957440112565587  1.0000
  C   C7        1.0  0.6388647598852251  0.905685125754644  0.9295744018717297  1.0000
  C   C8        1.0  0.36113523983302703  0.4056851257002621  0.5704255983927432  1.0000
  C   C9        1.0  0.44995887313720107  0.09837217377264268  0.17962314420789782  1.0000
  C   C10       1.0  0.5500411276940672  0.5983721730115626  0.3203768563686533  1.0000
  C   C11       1.0  0.5500411265192668  0.9016278263361209  0.8203768562051516  1.0000
  C   C12       1.0  0.44995887319898525  0.40162782628173915  0.6796231440593213  1.0000
  C   C13       1.0  0.5676055614375562  0.2722810609317085  0.12538620553876353  1.0000
  C   C14       1.0  0.4323944393946329  0.7722810609860904  0.37461379414313717  1.0000
  C   C15       1.0  0.4323944394554963  0.727718939177055  0.8746137948892111  1.0000
  C   C16       1.0  0.5676055614993404  0.2277189391226733  0.6253862053901871  1.0000
  C   C17       1.0  0.2529986474321571  0.0025297640599435136  0.03554085759033046  1.0000
  C   C18       1.0  0.7470013521634474  0.5025297641143254  0.46445914207664507  1.0000
  C   C19       1.0  0.7470013522252316  0.9974702360488201  0.9644591419280685  1.0000
  C   C20       1.0  0.25299864749394135  0.4974702359944383  0.5355408574417541  1.0000
  C   C21       1.0  0.4784973235922957  0.2694724488786614  0.016495987220618912  1.0000
  C   C22       1.0  0.521502676002388  0.7694724489330432  0.48350401334100696  1.0000
  C   C23       1.0  0.5215026760641721  0.7305275512301022  0.9835040131924305  1.0000
  C   C24       1.0  0.47849732365407993  0.23052755117572044  0.5164959870720425  1.0000
  C   C25       1.0  0.5532454356865056  0.18560717088372647  0.20661750735224907  1.0000
  C   C26       1.0  0.446754563908178  0.6856071709381083  0.2933824932093768  1.0000
  C   C27       1.0  0.4467545639699623  0.8143928292250372  0.7933824930608003  1.0000
  C   C28       1.0  0.5532454357482899  0.31439282917065536  0.7066175072036726  1.0000
  C   C29       1.0  0.8312654949843559  0.5961428870701415  0.837748657890583  1.0000
  C   C30       1.0  0.168734504734817  0.09614288701575971  0.6622513414792395  1.0000
  C   C31       1.0  0.16873450467303278  0.4038571130386221  0.16225134162781604  1.0000
  C   C32       1.0  0.8312654949225717  0.9038571130930039  0.3377486580391595  1.0000
  C   C33       1.0  0.8004619724933033  0.5462629787442211  0.9559311562088232  1.0000
  C   C34       1.0  0.19953802722494876  0.04626297868983931  0.5440688440556496  1.0000
  C   C35       1.0  0.19953802716316454  0.4537370213645425  0.04406884420422609  1.0000
  C   C36       1.0  0.8004619724315191  0.9537370214189244  0.4559311563573998  1.0000
  C   C37       1.0  0.9134163805278681  0.6875415190087768  0.8086770067119997  1.0000
  C   C38       1.0  0.0865836191913048  0.18754151895439508  0.6913229926578229  1.0000
  C   C39       1.0  0.08658361912952059  0.31245848109998675  0.19132299280639944  1.0000
  C   C40       1.0  0.9134163804660839  0.8124584811543686  0.30867700686057603  1.0000
  C   C41       1.0  0.9977814594378787  0.7676745129506047  0.8874816318606881  1.0000
  C   C42       1.0  0.0022185415178791303  0.2676745137116847  0.6125183675240595  1.0000
  C   C43       1.0  0.0022185414560948946  0.2323254863426971  0.1125183676726361  1.0000
  C   C44       1.0  0.9977814593760943  0.7323254863970788  0.3874816320092647  1.0000
  N   N1        1.0  0.22903817189974784  0.9192933793181391  0.10947077033832173  1.0000
  N   N2        1.0  0.7709618289324413  0.4192933792637574  0.3905292293435791  1.0000
  N   N3        1.0  0.7709618289933047  0.08070662079062439  0.890529230089653  1.0000
  N   N4        1.0  0.22903817072494742  0.5807066208450062  0.6094707701748199  1.0000
  O   O1        1.0  0.6692585708282295  0.35653558822153103  0.15390962294838265  1.0000
  O   O2        1.0  0.3307414300039596  0.8565355882759129  0.3460903767335181  1.0000
  O   O3        1.0  0.33074143006574386  0.6434644118872326  0.8460903765849416  1.0000
  O   O4        1.0  0.6692585696534291  0.14346441183285075  0.6539096227848809  1.0000
  O   O5        1.0  0.18272777610824156  0.005516412635598694  0.9321829866119322  1.0000
  O   O6        1.0  0.8172722248475159  0.5055164126899805  0.5678170127728156  1.0000
  O   O7        1.0  0.8172722247857318  0.994483587473165  0.06781701292139208  1.0000
  O   O8        1.0  0.18272777604645732  0.4944835874187831  0.43218298676050876  1.0000
  O   O9        1.0  0.04558747431343708  0.853940509799554  0.8313174827986264  1.0000
  O   O10       1.0  0.954412525404815  0.3539405097451722  0.6686825174658464  1.0000
  O   O11       1.0  0.9544125253430309  0.1460594903092096  0.16868251761442296  1.0000
  O   O12       1.0  0.04558747425165285  0.6460594903635914  0.3313174829472029  1.0000
  O   O13       1.0  0.8701900485853976  0.5838406307150742  0.0547268075260427  1.0000
  O   O14       1.0  0.12980995100928594  0.0838406306606924  0.44527319303558316  1.0000
  O   O15       1.0  0.12980995107107018  0.4161593693936894  0.9452731928870065  1.0000
  O   O16       1.0  0.870190048647182  0.9161593694480712  0.5547268073774662  1.0000
  O   O17       1.0  0.021223903488211637  0.752900351999829  0.9986249893254072  1.0000
  O   O18       1.0  0.9787760962300405  0.25290035194544724  0.5013750109390658  1.0000
  O   O19       1.0  0.978776096169177  0.24709964810893456  0.0013750101929918155  1.0000
  O   O20       1.0  0.0212239034264274  0.7470996481633163  0.49862498947398365  1.0000
  O   O21       1.0  0.706443111131223  0.465590074854471  0.9590094137203343  1.0000
  O   O22       1.0  0.29355688858702916  0.9655900749088527  0.5409905865441387  1.0000
  O   O23       1.0  0.2935568885252449  0.5344099252542927  0.04099058669271518  1.0000
  O   O24       1.0  0.7064431110694387  0.034409925199910825  0.4590094138689107  1.0000
