data_image0
_chemical_formula_structural       H42C12N4Cl6
_chemical_formula_sum              "H42 C12 N4 Cl6"
_cell_length_a       5.3252730472969745
_cell_length_b       10.354881716914873
_cell_length_c       11.272017616767068
_cell_angle_alpha    90.0
_cell_angle_beta     92.36558360303286
_cell_angle_gamma    90.0

_space_group_name_H-M_alt    "P 1"
_space_group_IT_number       1

loop_
  _space_group_symop_operation_xyz
  'x, y, z'

loop_
  _atom_site_type_symbol
  _atom_site_label
  _atom_site_symmetry_multiplicity
  _atom_site_fract_x
  _atom_site_fract_y
  _atom_site_fract_z
  _atom_site_occupancy
  H   H1        1.0  0.42856885484432755  0.9593768457801176  0.6888702946275599  1.0000
  H   H2        1.0  0.5714311450449279  0.45937684563114795  0.31112970548685825  1.0000
  H   H3        1.0  0.12652088031198866  0.48221032132539704  0.7096755978943212  1.0000
  H   H4        1.0  0.8734791195772668  0.9822103214743667  0.29032440222009676  1.0000
  H   H5        1.0  0.7023186368526343  0.570947471118139  0.6841171693856586  1.0000
  H   H6        1.0  0.2976813630366211  0.07094747096916931  0.3158828307287595  1.0000
  H   H7        1.0  0.7281715484089183  0.5509969419235332  0.5269807319004686  1.0000
  H   H8        1.0  0.2718284514803372  0.050996941774563515  0.4730192682139494  1.0000
  H   H9        1.0  0.9373929422796806  0.6586547974622383  0.6075288418124841  1.0000
  H   H10       1.0  0.06260705760957493  0.15865479731326862  0.392471158301934  1.0000
  H   H11       1.0  0.7750521451034494  0.30717941903711937  0.5759621635940201  1.0000
  H   H12       1.0  0.22494785478580595  0.8071794191860892  0.4240378365203979  1.0000
  H   H13       1.0  0.7609990796543546  0.3504616092400154  0.730040064007744  1.0000
  H   H14       1.0  0.23900092023490077  0.8504616093889851  0.2699599361066741  1.0000
  H   H15       1.0  0.02824716961720603  0.2630466551395367  0.6787267744115241  1.0000
  H   H16       1.0  0.9717528302720495  0.7630466552885063  0.321273225702894  1.0000
  H   H17       1.0  0.0709867648610931  0.42590703984535494  0.45088276434277585  1.0000
  H   H18       1.0  0.9290132350281622  0.9259070399943247  0.5491172357716422  1.0000
  H   H19       1.0  0.31852923189781424  0.3696470084972065  0.5502482660195548  1.0000
  H   H20       1.0  0.6814707679914412  0.8696470086461763  0.4497517340948633  1.0000
  H   H21       1.0  0.2848319220356251  0.539619432916593  0.5210329119574045  1.0000
  H   H22       1.0  0.7151680778536303  0.039619432767623246  0.4789670881570136  1.0000
  H   H23       1.0  0.12368568934359678  0.6554820910134207  0.9066143658726352  1.0000
  H   H24       1.0  0.876314310478844  0.15548209086445094  0.09338563335388818  1.0000
  H   H25       1.0  0.7677377170434769  0.8788798944109482  0.905583410820867  1.0000
  H   H26       1.0  0.23226228284577852  0.3788798942619784  0.09441658929355107  1.0000
  H   H27       1.0  0.7074475445104996  0.7290412142196043  0.8304101531258209  1.0000
  H   H28       1.0  0.2925524553787558  0.2290412150363627  0.16958984698859708  1.0000
  H   H29       1.0  0.9632936506002285  0.8293778707265365  0.7869650810006804  1.0000
  H   H30       1.0  0.036706349289026906  0.32937787057756684  0.21303491911373765  1.0000
  H   H31       1.0  0.35665688805254747  0.7676418338043819  0.05459277522559429  1.0000
  H   H32       1.0  0.643343111836708  0.2676418336554123  0.9454072248888238  1.0000
  H   H33       1.0  0.13094684404568527  0.896171456487173  0.04807815018773185  1.0000
  H   H34       1.0  0.8690531557767555  0.3961714563382033  0.9519218490387914  1.0000
  H   H35       1.0  0.3199378409532711  0.8644576205421844  0.9228644079524057  1.0000
  H   H36       1.0  0.6800621589359842  0.36445762039321467  0.07713559216201243  1.0000
  H   H37       1.0  0.7443499015028718  0.6065039497014305  0.009135540216446287  1.0000
  H   H38       1.0  0.25565009838638364  0.10650394955246077  0.9908644598979718  1.0000
  H   H39       1.0  0.021164341529479595  0.6190295519773242  0.1062000228845543  1.0000
  H   H40       1.0  0.9788356583597757  0.11902955182835456  0.8937999772298638  1.0000
  H   H41       1.0  0.7987172369378425  0.7495237234165506  0.09633371801199221  1.0000
  H   H42       1.0  0.2012827629514128  0.2495237232675809  0.9036662821024258  1.0000
  C   C1        1.0  0.8320773939630843  0.5680278839295557  0.611361590596199  1.0000
  C   C2        1.0  0.16792260592617111  0.06802788378058601  0.388638409518219  1.0000
  C   C3        1.0  0.8849621962304278  0.3360189874806857  0.6560159016235144  1.0000
  C   C4        1.0  0.11503780365882757  0.8360189876296553  0.3439840984909037  1.0000
  C   C5        1.0  0.18513770943118882  0.44813342507040715  0.5314119291638485  1.0000
  C   C6        1.0  0.8148622904580666  0.9481334252193768  0.46858807095056954  1.0000
  C   C7        1.0  0.8538009310562071  0.7966353682751407  0.861478983406535  1.0000
  C   C8        1.0  0.14619906883304823  0.2966353681261709  0.13852101670788317  1.0000
  C   C9        1.0  0.22352457705879375  0.8213374505386364  0.9969963502425586  1.0000
  C   C10       1.0  0.7764754228304616  0.32133745038966677  0.003003649871859396  1.0000
  C   C11       1.0  0.8879362819764939  0.6716935248655125  0.047363561569884575  1.0000
  C   C12       1.0  0.11206371791276153  0.17169352568227078  0.9526364385445334  1.0000
  N   N1        1.0  0.014319444252617925  0.4605044316644029  0.6320932868162079  1.0000
  N   N2        1.0  0.9856805556366375  0.9605044318133725  0.3679067132982101  1.0000
  N   N3        1.0  0.027324263348444896  0.7310207414185019  0.9491956732548945  1.0000
  N   N4        1.0  0.9726757364739957  0.23102074126953218  0.05080432597162877  1.0000
  Cl  Cl1       1.0  0.33408104952186957  0.5032102782485929  0.8615072775422239  1.0000
  Cl  Cl2       1.0  0.6659189503673858  0.003210278099623152  0.1384927225721941  1.0000
  Cl  Cl3       1.0  0.3574633410685157  0.8104672597361542  0.6492437561962329  1.0000
  Cl  Cl4       1.0  0.6425366588207397  0.3104672595871844  0.3507562439181852  1.0000
  Cl  Cl5       1.0  0.4923262479562316  0.09399390129296263  0.7238667706810775  1.0000
  Cl  Cl6       1.0  0.5076737519330239  0.5939939014419323  0.2761332294333407  1.0000
