data_image0
_chemical_formula_structural       H136C96N8O4
_chemical_formula_sum              "H136 C96 N8 O4"
_cell_length_a       13.03224195714628
_cell_length_b       14.418699273812264
_cell_length_c       14.589390877316884
_cell_angle_alpha    96.18709734676314
_cell_angle_beta     115.79177497658902
_cell_angle_gamma    114.89521430294094

_space_group_name_H-M_alt    "P 1"
_space_group_IT_number       1

loop_
  _space_group_symop_operation_xyz
  'x, y, z'

loop_
  _atom_site_type_symbol
  _atom_site_label
  _atom_site_symmetry_multiplicity
  _atom_site_fract_x
  _atom_site_fract_y
  _atom_site_fract_z
  _atom_site_occupancy
  H   H1        1.0  0.46807898201954173  0.07039575500336342  0.6300960729488957  1.0000
  H   H2        1.0  0.5319210181335535  0.9296042446578675  0.36990392717312276  1.0000
  H   H3        1.0  0.52178582520205  0.46759682822682064  0.8855953472292186  1.0000
  H   H4        1.0  0.4782141754761453  0.5324031722526745  0.1144046531849517  1.0000
  H   H5        1.0  0.8841721118147655  0.554149752119632  0.31289901481531074  1.0000
  H   H6        1.0  0.11582788801282534  0.4458502483623896  0.6871009852705602  1.0000
  H   H7        1.0  0.22129802287392372  0.8512335521899235  0.2984958947207864  1.0000
  H   H8        1.0  0.7787019772791716  0.14876644747130754  0.7015041054012321  1.0000
  H   H9        1.0  0.43820799001062655  0.2722372595671622  0.8636962056505154  1.0000
  H   H10       1.0  0.5617920101424687  0.7277627400940687  0.13630379447150312  1.0000
  H   H11       1.0  0.47648011700250514  0.3125247625033009  0.5537858642544085  1.0000
  H   H12       1.0  0.5235198831505903  0.6874752371579301  0.44621413586761005  1.0000
  H   H13       1.0  0.9744039174518714  0.48715739072762015  0.17241001958912425  1.0000
  H   H14       1.0  0.02559608237571946  0.5128426097544013  0.8275899804967467  1.0000
  H   H15       1.0  0.0916002654013748  0.4568429638207329  0.2607852094718763  1.0000
  H   H16       1.0  0.9083997338992928  0.5431570358441158  0.7392147896358245  1.0000
  H   H17       1.0  0.03805658331476757  0.5282794798465086  0.3156894294601893  1.0000
  H   H18       1.0  0.9619434173616043  0.47172052063407793  0.6843105702679625  1.0000
  H   H19       1.0  0.707936746366743  0.6112472116389899  0.06538092335764288  1.0000
  H   H20       1.0  0.292063252935748  0.3887527880247676  0.9346190764360764  1.0000
  H   H21       1.0  0.3424009774499317  0.8837245380377072  0.49569475261394425  1.0000
  H   H22       1.0  0.6575990223776592  0.11627546244431435  0.5043052474719267  1.0000
  H   H23       1.0  0.18617485250451965  0.17180602235151798  0.4822199812257326  1.0000
  H   H24       1.0  0.8138251476485758  0.828193977309713  0.5177800188962859  1.0000
  H   H25       1.0  0.12336040092758926  0.25839218227229543  0.4443640273824293  1.0000
  H   H26       1.0  0.8766395989000015  0.741607818209726  0.5556359727034417  1.0000
  H   H27       1.0  0.2974533310086185  0.315161819713744  0.5199560846182555  1.0000
  H   H28       1.0  0.7025466688189724  0.6848381807682776  0.4800439154676155  1.0000
  H   H29       1.0  0.9206640214512631  0.7256368850127195  0.20209022029556029  1.0000
  H   H30       1.0  0.07933597785122794  0.2743631146510379  0.797909779498159  1.0000
  H   H31       1.0  0.01135338310568233  0.6579498837034282  0.23017323858535416  1.0000
  H   H32       1.0  0.9886466161949854  0.34205011596142065  0.7698267605223467  1.0000
  H   H33       1.0  0.030053734670652373  0.7463625863441287  0.33836066093785877  1.0000
  H   H34       1.0  0.969946265482443  0.2536374133171024  0.6616393391841597  1.0000
  H   H35       1.0  0.966125498729864  0.26469117058523406  0.32182808863191864  1.0000
  H   H36       1.0  0.03387450142323151  0.7353088290759969  0.6781719114900998  1.0000
  H   H37       1.0  0.024254798518976016  0.3973511846704165  0.4015216092830697  1.0000
  H   H38       1.0  0.9757452016341194  0.6026488149908145  0.5984783908389488  1.0000
  H   H39       1.0  0.5926278228349927  0.17466064770275927  0.08170110062501622  1.0000
  H   H40       1.0  0.4073721773181025  0.8253393519584715  0.9182988994970023  1.0000
  H   H41       1.0  0.0494515236176698  0.10498975936717866  0.18043058188726868  1.0000
  H   H42       1.0  0.9505484765354256  0.8950102402940523  0.8195694182347498  1.0000
  H   H43       1.0  0.9819954306781912  0.13354148299357335  0.25454134615430135  1.0000
  H   H44       1.0  0.01800456947490414  0.8664585166676576  0.7454586539677173  1.0000
  H   H45       1.0  0.04674889581469673  0.04706374048691852  0.2822423498001102  1.0000
  H   H46       1.0  0.9532511040110707  0.9529362599961945  0.7177576495997424  1.0000
  H   H47       1.0  0.729089541183909  0.6695240178987796  0.2373370298327157  1.0000
  H   H48       1.0  0.27091045811858194  0.3304759817649779  0.7626629699610035  1.0000
  H   H49       1.0  0.8430813364598556  0.6924738696510381  0.37429210662041573  1.0000
  H   H50       1.0  0.1569186636932397  0.30752613001019297  0.6257078935016028  1.0000
  H   H51       1.0  0.6923526111054209  0.564391175785675  0.29346112274435376  1.0000
  H   H52       1.0  0.3076473890476744  0.4356088238755559  0.7065388773776647  1.0000
  H   H53       1.0  0.4996708923139999  0.21610857946159526  0.7350781564109672  1.0000
  H   H54       1.0  0.5003291083641952  0.7838914210178998  0.26492184400320307  1.0000
  H   H55       1.0  0.36964594341484286  0.24080774420782539  0.6609201303648299  1.0000
  H   H56       1.0  0.630354056412748  0.7591922562741962  0.3390798697210411  1.0000
  H   H57       1.0  0.5378588414994252  0.3511337432829014  0.745771265660032  1.0000
  H   H58       1.0  0.4621411586536701  0.6488662563783295  0.2542287344619864  1.0000
  H   H59       1.0  0.48936884231226924  0.4971223085777626  0.40307189167946533  1.0000
  H   H60       1.0  0.510631158365926  0.5028776919017326  0.5969281087347049  1.0000
  H   H61       1.0  0.3793952986868564  0.49843986656546785  0.2766304368132982  1.0000
  H   H62       1.0  0.6206047006156347  0.5015601330982896  0.7233695629804211  1.0000
  H   H63       1.0  0.5014685927701924  0.46715586584954744  0.28805822101722084  1.0000
  H   H64       1.0  0.49853140705557514  0.5328441346335656  0.7119417783826317  1.0000
  H   H65       1.0  0.6435492620969873  0.12129168165812582  0.30267461233705484  1.0000
  H   H66       1.0  0.35645073857938453  0.8787083188224607  0.6973253873910968  1.0000
  H   H67       1.0  0.7921243551824213  0.11890430051657641  0.3401937505921368  1.0000
  H   H68       1.0  0.20787564411824627  0.8810956991482725  0.6598062485155641  1.0000
  H   H69       1.0  0.6975987275855032  0.12168336780426046  0.20998689778096416  1.0000
  H   H70       1.0  0.302401273092692  0.8783166326752347  0.7900131026332061  1.0000
  H   H71       1.0  0.38988975394163905  0.0533455665359147  0.2070171850251097  1.0000
  H   H72       1.0  0.6101102462114563  0.9466544331253163  0.7929828150969089  1.0000
  H   H73       1.0  0.24579742281735534  0.9643000607852158  0.07494563382717308  1.0000
  H   H74       1.0  0.7542025764851356  0.035699938878541566  0.9250543659665462  1.0000
  H   H75       1.0  0.29819782168324915  0.9095515253224002  0.1777474817907345  1.0000
  H   H76       1.0  0.7018021781443418  0.09044847515962141  0.8222525182951365  1.0000
  H   H77       1.0  0.32625199397410704  0.29270343518920483  0.12936380454463076  1.0000
  H   H78       1.0  0.673748006177165  0.7072965644731176  0.8706361948913693  1.0000
  H   H79       1.0  0.20494672511314843  0.3274164987940176  0.11424364888235479  1.0000
  H   H80       1.0  0.7950532755650467  0.6725835016854775  0.8857563515318154  1.0000
  H   H81       1.0  0.17890712822850627  0.19785642948512386  0.12221059525170576  1.0000
  H   H82       1.0  0.821092872449689  0.8021435709943712  0.8777894051624645  1.0000
  H   H83       1.0  0.13822675083409403  0.31453623772797196  0.251521222431117  1.0000
  H   H84       1.0  0.8617732493190012  0.6854637619332589  0.7484787776909015  1.0000
  H   H85       1.0  0.27587426371887314  0.3957665925771605  0.386250062500336  1.0000
  H   H86       1.0  0.7241257364342223  0.6042334070840705  0.6137499376216825  1.0000
  H   H87       1.0  0.7793235829731102  0.18431353191284855  0.11493764488072063  1.0000
  H   H88       1.0  0.2206764163293809  0.815686467750909  0.8850623549129987  1.0000
  H   H89       1.0  0.9409242236934501  0.26642153791758244  0.1378866187862099  1.0000
  H   H90       1.0  0.05907577560904089  0.733578461746175  0.8621133810075093  1.0000
  H   H91       1.0  0.810475821972325  0.284910696312817  0.053022334012652175  1.0000
  H   H92       1.0  0.18952417818077041  0.7150893033484141  0.9469776661093665  1.0000
  H   H93       1.0  0.1989179537698094  0.06715608832290831  0.18424189132150748  1.0000
  H   H94       1.0  0.8010820455326816  0.9328439113408491  0.8157581084722118  1.0000
  H   H95       1.0  0.7082817875916015  0.3780707506874381  0.6947968935819584  1.0000
  H   H96       1.0  0.2917182125614939  0.6219292489737928  0.3052031065400602  1.0000
  H   H97       1.0  0.6604494780873562  0.29021596297084157  0.5709700881596037  1.0000
  H   H98       1.0  0.33955052259083895  0.7097840375086536  0.4290299122545666  1.0000
  H   H99       1.0  0.6698034741886604  0.24125438636980356  0.6802588671377611  1.0000
  H   H100      1.0  0.33019652648953485  0.7587456141096917  0.3197411332764092  1.0000
  H   H101      1.0  0.31978390985064936  0.1413937959177351  0.9232360925934042  1.0000
  H   H102      1.0  0.6802160903006226  0.8586062037445872  0.07676390684259596  1.0000
  H   H103      1.0  0.3978140176329075  0.17476748188571237  0.06738126312849346  1.0000
  H   H104      1.0  0.6021859825183643  0.8252325177766099  0.9326187363075066  1.0000
  H   H105      1.0  0.3474949768123276  0.046330438473796635  0.9825786993874482  1.0000
  H   H106      1.0  0.6525050224901634  0.9536695611899608  0.017421300406270938  1.0000
  H   H107      1.0  0.49071322047065097  0.035100149610143856  0.9097438347177179  1.0000
  H   H108      1.0  0.5092867796824443  0.964899850051087  0.09025616540430069  1.0000
  H   H109      1.0  0.6128129383249148  0.15645347373962606  0.9140914501945322  1.0000
  H   H110      1.0  0.38718706235328043  0.8435465267398691  0.08590855021963802  1.0000
  H   H111      1.0  0.44088591155383466  0.11189432670737236  0.8333385119250655  1.0000
  H   H112      1.0  0.5591140891243604  0.8881056737721228  0.16666148848910473  1.0000
  H   H113      1.0  0.9267154463052201  0.4026061707466942  0.5059962166999271  1.0000
  H   H114      1.0  0.07328455384605177  0.5973938289156281  0.4940037827360731  1.0000
  H   H115      1.0  0.9207801009064355  0.2767754259580297  0.5067555583272013  1.0000
  H   H116      1.0  0.0792198983942321  0.7232245737068191  0.4932444407804995  1.0000
  H   H117      1.0  0.7782047738091246  0.2851898026194221  0.4767991911361156  1.0000
  H   H118      1.0  0.22179522549336644  0.7148101970443352  0.5232008086576037  1.0000
  H   H119      1.0  0.05378565496868014  0.8191956512086577  0.1337723041804224  1.0000
  H   H120      1.0  0.9462143448589109  0.180804349273364  0.8662276959054486  1.0000
  H   H121      1.0  0.0165378776538952  0.8876828374679896  0.041924720954437236  1.0000
  H   H122      1.0  0.983462121648596  0.11231716219576787  0.958075278839282  1.0000
  H   H123      1.0  0.9905860579415623  0.9028704151549684  0.15119354760843404  1.0000
  H   H124      1.0  0.009413941884205121  0.09712958532814454  0.8488064517914186  1.0000
  H   H125      1.0  0.8909659450436128  0.8781738494153993  0.31040953946017946  1.0000
  H   H126      1.0  0.10903405478397812  0.1218261510666223  0.6895904606256914  1.0000
  H   H127      1.0  0.8862550632730275  0.0816722104555058  0.5456674865745232  1.0000
  H   H128      1.0  0.11374493602764014  0.9183277892093431  0.45433251253317763  1.0000
  H   H129      1.0  0.777992910847949  0.9610610775987999  0.3563427219620593  1.0000
  H   H130      1.0  0.222007088979642  0.03893892288322174  0.6436572781238117  1.0000
  H   H131      1.0  0.15682021603116514  0.6986988650357175  0.11003428352360047  1.0000
  H   H132      1.0  0.8431797837964259  0.3013011354463041  0.8899657165622705  1.0000
  H   H133      1.0  0.08912417659460511  0.38020194033339244  0.9868491810838592  1.0000
  H   H134      1.0  0.9108758240835901  0.6197980601461027  0.013150819330311096  1.0000
  H   H135      1.0  0.24574133078161609  0.5785423480426314  0.09609447720307768  1.0000
  H   H136      1.0  0.7542586698947555  0.4214576524379551  0.9039055225250742  1.0000
  C   C1        1.0  0.7011046550904094  0.3881881571391298  0.1262073250134554  1.0000
  C   C2        1.0  0.29889534473718143  0.6118118433428917  0.8737926750724155  1.0000
  C   C3        1.0  0.5869512035701933  0.322130535410016  0.3324408016701008  1.0000
  C   C4        1.0  0.4130487957322977  0.6778694642537413  0.6675591981236184  1.0000
  C   C5        1.0  0.741983444307955  0.4993465612961203  0.14289815482824483  1.0000
  C   C6        1.0  0.25801655499453596  0.5006534383676372  0.8571018449654745  1.0000
  C   C7        1.0  0.26285768161777434  0.01583727264692855  0.31976903067933937  1.0000
  C   C8        1.0  0.7371423182098165  0.984162727835093  0.6802309694065316  1.0000
  C   C9        1.0  0.40738697528475465  0.05478975630098863  0.5435229879270052  1.0000
  C   C10       1.0  0.5926130248683408  0.9452102433602424  0.4564770121950133  1.0000
  C   C11       1.0  0.5714960672020368  0.4452443701960928  0.9533527391872324  1.0000
  C   C12       1.0  0.4285039334761584  0.5547556302834022  0.046647261226937915  1.0000
  C   C13       1.0  0.5882776277783397  0.30461078250461265  0.02627404938089421  1.0000
  C   C14       1.0  0.4117223728998555  0.6953892179748826  0.973725951033276  1.0000
  C   C15       1.0  0.8180219042772754  0.2783388177529175  0.3461359347611635  1.0000
  C   C16       1.0  0.18197809502521564  0.7216611819108398  0.6538640650325558  1.0000
  C   C17       1.0  0.3832181434749774  0.2684157552442788  0.3276557063777473  1.0000
  C   C18       1.0  0.6167818566781181  0.7315842444169524  0.6723442937442712  1.0000
  C   C19       1.0  0.8938153559175395  0.3541195796480997  0.22667322909612825  1.0000
  C   C20       1.0  0.10618464423555594  0.6458804200131313  0.7733267710258903  1.0000
  C   C21       1.0  0.8432827996256352  0.5894245421103415  0.254152539765484  1.0000
  C   C22       1.0  0.15671720020195568  0.41057545837168025  0.7458474603203868  1.0000
  C   C23       1.0  0.26943837060023873  0.9320114295882372  0.3573932653745135  1.0000
  C   C24       1.0  0.7305616287022522  0.06798857007552017  0.6426067344192058  1.0000
  C   C25       1.0  0.5253432398698249  0.3356638594192156  0.941139886157882  1.0000
  C   C26       1.0  0.4746567602832705  0.6643361402420154  0.05886011396413654  1.0000
  C   C27       1.0  0.4955855624098948  0.25665507422235617  0.5942392239570162  1.0000
  C   C28       1.0  0.5044144377432006  0.7433449254388749  0.4057607761650024  1.0000
  C   C29       1.0  0.19759548644021005  0.22068928406970342  0.3488543685635894  1.0000
  C   C30       1.0  0.8024045142379851  0.7793107164097917  0.6511456318505807  1.0000
  C   C31       1.0  0.005114777053803722  0.4637565509765157  0.24440749610700707  1.0000
  C   C32       1.0  0.9948852236243916  0.5362434495029795  0.7555925043071633  1.0000
  C   C33       1.0  0.6773436831204923  0.5257778157490333  0.05407688379634389  1.0000
  C   C34       1.0  0.32265631755770297  0.4742221847304619  0.9459231166178262  1.0000
  C   C35       1.0  0.33819059765273707  0.950122505448537  0.46823052366022677  1.0000
  C   C36       1.0  0.6618094021748537  0.04987749503348451  0.5317694764256442  1.0000
  C   C37       1.0  0.20233712413603144  0.24232657885994197  0.4557576257914893  1.0000
  C   C38       1.0  0.7976628751664596  0.7576734208038155  0.54424237400223  1.0000
  C   C39       1.0  0.9576446943097868  0.6846600880592796  0.2558999408758678  1.0000
  C   C40       1.0  0.04235530499270423  0.3153399116044779  0.7441000589178516  1.0000
  C   C41       1.0  0.9367763460501269  0.3245642780434526  0.33014216161743376  1.0000
  C   C42       1.0  0.06322365410296826  0.6754357216177784  0.6698578385045848  1.0000
  C   C43       1.0  0.3272003093154499  0.33682709411430417  0.27815836860708026  1.0000
  C   C44       1.0  0.6727996913627452  0.6631729063651908  0.7218416318070898  1.0000
  C   C45       1.0  0.5280581335040813  0.1833306628068356  0.008366717708341846  1.0000
  C   C46       1.0  0.4719418666490142  0.8166693368543954  0.9916332824136768  1.0000
  C   C47       1.0  0.06139932448562171  0.1202559312208953  0.26075883332854755  1.0000
  C   C48       1.0  0.9386006748168693  0.879744068442862  0.7392411664651717  1.0000
  C   C49       1.0  0.7721337778473477  0.6312928441512936  0.2914820394230572  1.0000
  C   C50       1.0  0.22786622198024312  0.36870715633072804  0.7085179606628137  1.0000
  C   C51       1.0  0.47356214622332676  0.2662529945120581  0.6887350843852279  1.0000
  C   C52       1.0  0.5264378530791642  0.7337470051516992  0.3112649154084914  1.0000
  C   C53       1.0  0.43161696827423635  0.45722569749494424  0.31452820837054485  1.0000
  C   C54       1.0  0.5683830310282547  0.5427743021688132  0.6854717914231744  1.0000
  C   C55       1.0  0.7319653387389906  0.15230969196913152  0.2962247923561219  1.0000
  C   C56       1.0  0.26803466193738124  0.847690308511455  0.7037752073720299  1.0000
  C   C57       1.0  0.28939797977032483  0.979773685023178  0.16263340955253627  1.0000
  C   C58       1.0  0.7106020200554426  0.02022631545993491  0.8373665898473163  1.0000
  C   C59       1.0  0.25481208842385417  0.285051892848202  0.15334476475324357  1.0000
  C   C60       1.0  0.7451879108786369  0.7149481068155554  0.8466552350404758  1.0000
  C   C61       1.0  0.7341192865692627  0.3211662568076935  0.2775079277273417  1.0000
  C   C62       1.0  0.26588071358383264  0.6788337428535376  0.7224920723946768  1.0000
  C   C63       1.0  0.404822343981238  0.14175179327511375  0.510224369615039  1.0000
  C   C64       1.0  0.5951776566969571  0.8582482072043813  0.48977563079913117  1.0000
  C   C65       1.0  0.3256785240922443  0.11977482391984616  0.39784718256545387  1.0000
  C   C66       1.0  0.6743214765841276  0.8802251765607404  0.602152817162698  1.0000
  C   C67       1.0  0.22993349847433112  0.3230641247627359  0.31619652249950886  1.0000
  C   C68       1.0  0.77006650082816  0.6769358749010216  0.6838034772942104  1.0000
  C   C69       1.0  0.852203082810767  0.2665825958786276  0.12692660399794348  1.0000
  C   C70       1.0  0.14779691701682365  0.7334174046033939  0.8730733960879274  1.0000
  C   C71       1.0  0.20055603220263613  0.9944547206222706  0.19839464462305006  1.0000
  C   C72       1.0  0.7994439679504592  0.005545279038960365  0.8016053554989685  1.0000
  C   C73       1.0  0.6422399635783438  0.293159454075724  0.6375148370623445  1.0000
  C   C74       1.0  0.3577600357241471  0.7068405455880332  0.36248516273137477  1.0000
  C   C75       1.0  0.6918704532743073  0.4323337175456952  0.4357832056078253  1.0000
  C   C76       1.0  0.30812954740388787  0.5676662829338  0.564216794806345  1.0000
  C   C77       1.0  0.38991663565044066  0.13387463999423888  0.9946503930229106  1.0000
  C   C78       1.0  0.6100833645026548  0.8661253596669922  0.005349607099107906  1.0000
  C   C79       1.0  0.518151080885265  0.11868578106739856  0.9110835659710095  1.0000
  C   C80       1.0  0.481848918942326  0.8813142194146231  0.08891643411486141  1.0000
  C   C81       1.0  0.8635815781252378  0.31367517245504045  0.46628772489873743  1.0000
  C   C82       1.0  0.136418421702353  0.6863248280269811  0.5337122751871336  1.0000
  C   C83       1.0  0.057216995823462666  0.8956577593113372  0.12792084796133865  1.0000
  C   C84       1.0  0.9427830034790284  0.10434224035242029  0.8720791518323806  1.0000
  C   C85       1.0  0.938857365946133  0.9318367951908859  0.39344712842702206  1.0000
  C   C86       1.0  0.061142634732062225  0.06816320528860938  0.6065528719871481  1.0000
  C   C87       1.0  0.9368367369198318  0.04683832845639162  0.5256174526677811  1.0000
  C   C88       1.0  0.06316326375836336  0.9531616720231034  0.47438254774638905  1.0000
  C   C89       1.0  0.8757747502173342  0.9786413098951748  0.41905677274520364  1.0000
  C   C90       1.0  0.12422524993576124  0.021358689766056187  0.5809432273768149  1.0000
  C   C91       1.0  0.08801233174156199  0.6115227066113503  0.061606465435473504  1.0000
  C   C92       1.0  0.9119876684115333  0.3884772930498806  0.9383935346865451  1.0000
  C   C93       1.0  0.04990445194591807  0.4325079525968268  0.9931970147518795  1.0000
  C   C94       1.0  0.950095547356573  0.5674920470669307  0.006802985041839689  1.0000
  C   C95       1.0  0.1381814586527324  0.5441351785958419  0.05478662133191827  1.0000
  C   C96       1.0  0.8618185406497586  0.45586482106791554  0.9452133784618009  1.0000
  N   N1        1.0  0.7750062674049721  0.35928952940838105  0.21220040223699363  1.0000
  N   N2        1.0  0.22499373242261866  0.6407104710736407  0.7877995978488773  1.0000
  N   N3        1.0  0.30889966184303613  0.2043645017517111  0.3621279138796213  1.0000
  N   N4        1.0  0.6911003388333357  0.7956354987288753  0.6378720858485305  1.0000
  N   N5        1.0  0.47105618853202935  0.253895353349026  0.31910712503785194  1.0000
  N   N6        1.0  0.5289438116210661  0.746104646312205  0.6808928750841665  1.0000
  N   N7        1.0  0.6186885638434271  0.2995580074963561  0.26273276387021116  1.0000
  N   N8        1.0  0.38131143683476815  0.7004419929831389  0.7372672365439591  1.0000
  O   O1        1.0  0.7995972359300801  0.48946555344357645  0.44056762677651184  1.0000
  O   O2        1.0  0.20040276422301526  0.5105344462176545  0.5594323733455067  1.0000
  O   O3        1.0  0.6537996737194929  0.4476704468265316  0.49847682105762503  1.0000
  O   O4        1.0  0.34620032558117464  0.5523295528383171  0.5015231780500757  1.0000
