data_image0
_chemical_formula_structural       H48C48O2F12P2S32
_chemical_formula_sum              "H48 C48 O2 F12 P2 S32"
_cell_length_a       8.958116216696089
_cell_length_b       12.25469230275562
_cell_length_c       16.961904064371122
_cell_angle_alpha    104.31555826906309
_cell_angle_beta     90.11990922415032
_cell_angle_gamma    104.09405812380172

_space_group_name_H-M_alt    "P 1"
_space_group_IT_number       1

loop_
  _space_group_symop_operation_xyz
  'x, y, z'

loop_
  _atom_site_type_symbol
  _atom_site_label
  _atom_site_symmetry_multiplicity
  _atom_site_fract_x
  _atom_site_fract_y
  _atom_site_fract_z
  _atom_site_occupancy
  H   H1        1.0  0.49420544121883614  0.267570695146521  0.8173620435752584  1.0000
  H   H2        1.0  0.5057945590285854  0.732429305191086  0.18263795653024759  1.0000
  H   H3        1.0  0.3286221281174906  0.29474473122464834  0.7754276652604003  1.0000
  H   H4        1.0  0.6713778721299309  0.7052552691129584  0.22457233484510566  1.0000
  H   H5        1.0  0.3383473799790036  0.5054310619453535  0.7675515520337911  1.0000
  H   H6        1.0  0.661652620268418  0.4945689383922534  0.23244844807171486  1.0000
  H   H7        1.0  0.5040491277972032  0.617636407739127  0.8100825238572849  1.0000
  H   H8        1.0  0.4959508710592994  0.38236359175577544  0.1899174762567592  1.0000
  H   H9        1.0  0.6502554094987761  0.4659699705578048  0.8152764304583279  1.0000
  H   H10       1.0  0.34974458927087737  0.5340300287095091  0.1847235690459551  1.0000
  H   H11       1.0  0.4964557445227397  0.46776173633116974  0.8793268700140203  1.0000
  H   H12       1.0  0.5035442554509273  0.5322382631665143  0.12067313009529604  1.0000
  H   H13       1.0  0.6696595589510117  0.05235785664601645  0.13505615400321738  1.0000
  H   H14       1.0  0.33034044102265525  0.9476421428516676  0.8649438461060989  1.0000
  H   H15       1.0  0.8771982065616949  0.08815834564121243  0.12744243919770235  1.0000
  H   H16       1.0  0.12280179368572666  0.9118416546963944  0.8725575609078037  1.0000
  H   H17       1.0  0.8625930920192741  0.4501430258017552  0.8029887921407672  1.0000
  H   H18       1.0  0.13740690822814738  0.5498569745358517  0.1970112079647388  1.0000
  H   H19       1.0  0.03176756351287758  0.5614581567857723  0.8445211993410943  1.0000
  H   H20       1.0  0.9682324356173793  0.43854184354905285  0.15547880076913934  1.0000
  H   H21       1.0  0.017440297343427023  0.2103633117862922  0.8483651195427742  1.0000
  H   H22       1.0  0.9825597026302402  0.789636687711392  0.1516348805665422  1.0000
  H   H23       1.0  0.8552068965793798  0.23960409817123404  0.8060830937243864  1.0000
  H   H24       1.0  0.14479310330743805  0.7603959010988615  0.19391690577516907  1.0000
  H   H25       1.0  0.014872665437590594  0.4094018631282505  0.9116894075612988  1.0000
  H   H26       1.0  0.9851273345360766  0.5905981363694337  0.08831059254801768  1.0000
  H   H27       1.0  0.1749802136462357  0.41280534147840153  0.8517345535436575  1.0000
  H   H28       1.0  0.8250197863274314  0.5871946580192826  0.14826544656565901  1.0000
  H   H29       1.0  0.29234116169081  0.006210225301584774  0.14289819303821286  1.0000
  H   H30       1.0  0.707658838282857  0.9937897741960992  0.8571018070711035  1.0000
  H   H31       1.0  0.16428035160313925  0.007013677665608567  0.22421226516922466  1.0000
  H   H32       1.0  0.8357196486442823  0.9929863226719983  0.7757877349362813  1.0000
  H   H33       1.0  0.02857967810722505  0.2798378051096791  0.13749178348307642  1.0000
  H   H34       1.0  0.971420321866442  0.7201621943880051  0.8625082166262401  1.0000
  H   H35       1.0  0.22816569432730432  0.323717184312583  0.16955248068697343  1.0000
  H   H36       1.0  0.7718343048029527  0.6762828160222422  0.8304475194232602  1.0000
  H   H37       1.0  0.30065999256554193  0.3501208889941943  0.04019829982412612  1.0000
  H   H38       1.0  0.6993400076818796  0.6498791113434126  0.9598017002813799  1.0000
  H   H39       1.0  0.10410046833676831  0.34516583344502894  0.019633635037194275  1.0000
  H   H40       1.0  0.8958995307934888  0.6548341668897961  0.9803663650730394  1.0000
  H   H41       1.0  0.24191041584354347  0.1801552135782508  0.9284350593692121  1.0000
  H   H42       1.0  0.7580895844038781  0.819844786759356  0.07156494073629395  1.0000
  H   H43       1.0  0.045000488684088805  0.14012743198128963  0.9524509287280996  1.0000
  H   H44       1.0  0.9549995115633327  0.8598725683563172  0.047549071377406445  1.0000
  H   H45       1.0  0.3294837323078353  0.11970305343254818  0.042770637596390076  1.0000
  H   H46       1.0  0.6705162679395862  0.8802969469050588  0.9572293625091159  1.0000
  H   H47       1.0  0.15021964877169916  0.012395779834326376  0.012615445470873423  1.0000
  H   H48       1.0  0.8497803514757224  0.9876042205032804  0.9873845546346325  1.0000
  C   C1        1.0  0.21231803199742377  0.27740198423334955  0.491495392854161  1.0000
  C   C2        1.0  0.7876819682499978  0.7225980161042573  0.508504607251345  1.0000
  C   C3        1.0  0.10750567379825213  0.2356211522313747  0.425443604491083  1.0000
  C   C4        1.0  0.8924943264491694  0.7643788481062321  0.5745563956144231  1.0000
  C   C5        1.0  0.40385978633527203  0.29647550968924263  0.6122037740234038  1.0000
  C   C6        1.0  0.596140212794985  0.7035244906455824  0.38779622608682995  1.0000
  C   C7        1.0  0.41129272891114005  0.4079280090110443  0.6094135342286625  1.0000
  C   C8        1.0  0.5887072709756779  0.5920719902590513  0.3905864652708928  1.0000
  C   C9        1.0  0.9283224560364961  0.10390358900208428  0.30362057806360576  1.0000
  C   C10       1.0  0.07167754421092541  0.8960964113355226  0.6963794220419003  1.0000
  C   C11       1.0  0.9275802749757626  0.21505992816174926  0.3024955610858437  1.0000
  C   C12       1.0  0.07241972527165895  0.7849400721758576  0.6975044390196624  1.0000
  C   C13       1.0  0.4551464421627637  0.3172388426208545  0.7793250295998448  1.0000
  C   C14       1.0  0.5448535580846579  0.6827611577167524  0.22067497050566112  1.0000
  C   C15       1.0  0.46474918992947384  0.5268621737632347  0.7740595206524647  1.0000
  C   C16       1.0  0.5352508092007832  0.4731378265715904  0.22594047945776896  1.0000
  C   C17       1.0  0.5239376472403434  0.44676168834857594  0.8149033792429193  1.0000
  C   C18       1.0  0.47606235273332365  0.5532383111491082  0.18509662086639717  1.0000
  C   C19       1.0  0.7827790427149295  0.08547329474296697  0.16868992094926866  1.0000
  C   C20       1.0  0.2172209572587376  0.9145267047547172  0.8313100791600478  1.0000
  C   C21       1.0  0.75564485711535  0.2257746461101183  0.5205677912814836  1.0000
  C   C22       1.0  0.2443551428583171  0.7742253533875658  0.4794322088278328  1.0000
  C   C23       1.0  0.6517370697307842  0.18393350955915902  0.4537886282569737  1.0000
  C   C24       1.0  0.3482629302428829  0.8160664899385252  0.5462113718523428  1.0000
  C   C25       1.0  0.9412774885289203  0.3558905358114496  0.6425078841409133  1.0000
  C   C26       1.0  0.058722510601336604  0.6441094645233756  0.3574921159693203  1.0000
  C   C27       1.0  0.9363371790951643  0.24441246113541962  0.644443767039453  1.0000
  C   C28       1.0  0.06366282106540815  0.7555875389745987  0.355556232456292  1.0000
  C   C29       1.0  0.46648120452884506  0.16372345054705525  0.3336466280260673  1.0000
  C   C30       1.0  0.5335187957185764  0.8362765497905515  0.6663533720794386  1.0000
  C   C31       1.0  0.4711371788553425  0.05317048367323885  0.33385451338001554  1.0000
  C   C32       1.0  0.5288628213052298  0.9468295164367794  0.6661454861157294  1.0000
  C   C33       1.0  0.9890284678177222  0.4714852079416152  0.8080608170105401  1.0000
  C   C34       1.0  0.010971532155944767  0.5285147915560688  0.19193918309877633  1.0000
  C   C35       1.0  0.9814374089387309  0.261727930278311  0.8106765781112357  1.0000
  C   C36       1.0  0.018562591308690674  0.7382720700592958  0.1893234219942703  1.0000
  C   C37       1.0  0.04834592306666519  0.39086286543384496  0.8483000981643926  1.0000
  C   C38       1.0  0.9516540769070019  0.6091371340638392  0.1516999019449239  1.0000
  C   C39       1.0  0.28516690396849437  0.02767193204443569  0.209058951878934  1.0000
  C   C40       1.0  0.7148330962789271  0.9723280682931713  0.7909410482265721  1.0000
  C   C41       1.0  0.14295345642537305  0.26947098235725947  0.11949455594177118  1.0000
  C   C42       1.0  0.8570465438220485  0.7305290179803474  0.8805054441637349  1.0000
  C   C43       1.0  0.18193576520949684  0.2975744262129427  0.0374476425911411  1.0000
  C   C44       1.0  0.8180642347641701  0.7024255732847415  0.9625523575181754  1.0000
  C   C45       1.0  0.16454223103780555  0.17728841328481262  0.9782484573422641  1.0000
  C   C46       1.0  0.8354577692096161  0.8227115870527942  0.021751542763241854  1.0000
  C   C47       1.0  0.2037102334993594  0.1061746999786829  0.03357845136653576  1.0000
  C   C48       1.0  0.7962897664743077  0.8938252995190011  0.9664215487427806  1.0000
  O   O1        1.0  0.14002119445579442  0.14820591913358758  0.11027014258633447  1.0000
  O   O2        1.0  0.8599788057047778  0.8517940809764307  0.8897298569094105  1.0000
  F   F1        1.0  0.6176714841792953  0.2084993019760905  0.07031313664894209  1.0000
  F   F2        1.0  0.3823285157943718  0.7915006975215937  0.9296868634603743  1.0000
  F   F3        1.0  0.5558002834374607  0.3507037781465885  0.01791674334481955  1.0000
  F   F4        1.0  0.44419971680996084  0.6492962221910185  0.9820832567606866  1.0000
  F   F5        1.0  0.8119754855117621  0.35740845454811804  0.044893790752478555  1.0000
  F   F6        1.0  0.18802451473565945  0.642591545789489  0.9551062093530276  1.0000
  F   F7        1.0  0.7118721242057201  0.3119578634871969  0.911549269283869  1.0000
  F   F8        1.0  0.2881278746507825  0.6880421360077055  0.08845073083017498  1.0000
  F   F9        1.0  0.7754598995140921  0.16966843066710927  0.9639603018571743  1.0000
  F   F10       1.0  0.22454010045957493  0.8303315688305748  0.03603969825214212  1.0000
  F   F11       1.0  0.5194855495683066  0.16208225065899468  0.9359627154738556  1.0000
  F   F12       1.0  0.48051445067911497  0.8379177496786122  0.06403728463165043  1.0000
  P   P1        1.0  0.6650350042227368  0.2602114657648066  0.9910719629729559  1.0000
  P   P2        1.0  0.3349649960246848  0.7397885345728002  0.008928037132550127  1.0000
  S   S1        1.0  0.2725627842858003  0.1856372815393987  0.5418911198240828  1.0000
  S   S2        1.0  0.7274372156010177  0.8143627177306969  0.4581088796754726  1.0000
  S   S3        1.0  0.2881002596185128  0.42603261741789883  0.5359284513302837  1.0000
  S   S4        1.0  0.7118997406289087  0.5739673829197081  0.4640715487752224  1.0000
  S   S5        1.0  0.03616519780558226  0.08570415908648084  0.3821261138849208  1.0000
  S   S6        1.0  0.9638348021680847  0.9142958404112032  0.6178738862243955  1.0000
  S   S7        1.0  0.04063015140446337  0.32787658451252216  0.3775834714357742  1.0000
  S   S8        1.0  0.9593698488429583  0.6721234158250847  0.6224165286697317  1.0000
  S   S9        1.0  0.5146509291077983  0.2551156837699591  0.6787842112556483  1.0000
  S   S10       1.0  0.48534907077901956  0.7448843155001366  0.3212157882439072  1.0000
  S   S11       1.0  0.5329045499902759  0.5320983723024003  0.6731143027773228  1.0000
  S   S12       1.0  0.4670954502571455  0.4679016280352066  0.3268856973281833  1.0000
  S   S13       1.0  0.8024146512214481  0.9905676629012535  0.2334739751801595  1.0000
  S   S14       1.0  0.19758534875221898  0.00943233659643054  0.7665260249291569  1.0000
  S   S15       1.0  0.7986265667678861  0.2321283622487023  0.232024923529679  1.0000
  S   S16       1.0  0.2013734334795355  0.7678716380889045  0.767975076575827  1.0000
  S   S17       1.0  0.8283882174748816  0.3736850201656577  0.5649887332013873  1.0000
  S   S18       1.0  0.17161178268569074  0.6263149799443606  0.4350112662943577  1.0000
  S   S19       1.0  0.8154512897583536  0.13372610086702916  0.5701777547461648  1.0000
  S   S20       1.0  0.18454871048906796  0.8662738994705778  0.42982224535934116  1.0000
  S   S21       1.0  0.5797778114313202  0.27619578261562616  0.40874569418510087  1.0000
  S   S22       1.0  0.42022218845549764  0.7238042166544694  0.5912543053144547  1.0000
  S   S23       1.0  0.5825643795893348  0.0349740137836266  0.41038646991391153  1.0000
  S   S24       1.0  0.4174356206580867  0.9650259865539803  0.5896135301915946  1.0000
  S   S25       1.0  0.05590586595050804  0.48112097790421765  0.7079616475637479  1.0000
  S   S26       1.0  0.9440941342969136  0.5188790224333892  0.2920383525417582  1.0000
  S   S27       1.0  0.04550696495712217  0.20210991831645864  0.7109759640613508  1.0000
  S   S28       1.0  0.9544930350165449  0.7978900811812254  0.28902403604796567  1.0000
  S   S29       1.0  0.37090832865866263  0.18302089901716287  0.2507755166660287  1.0000
  S   S30       1.0  0.6290916712281552  0.8169791002529327  0.7492244828335267  1.0000
  S   S31       1.0  0.3906848355003513  0.9414086447171159  0.24926744409509055  1.0000
  S   S32       1.0  0.6093151647470701  0.05859135562049093  0.7507325560104156  1.0000
