data_image0
_chemical_formula_structural       H14C20N2O4F4I2
_chemical_formula_sum              "H14 C20 N2 O4 F4 I2"
_cell_length_a       4.03258321476311
_cell_length_b       10.618618381841618
_cell_length_c       12.619221502183608
_cell_angle_alpha    91.39314621854086
_cell_angle_beta     97.35319032320162
_cell_angle_gamma    90.10432737406525

_space_group_name_H-M_alt    "P 1"
_space_group_IT_number       1

loop_
  _space_group_symop_operation_xyz
  'x, y, z'

loop_
  _atom_site_type_symbol
  _atom_site_label
  _atom_site_symmetry_multiplicity
  _atom_site_fract_x
  _atom_site_fract_y
  _atom_site_fract_z
  _atom_site_occupancy
  H   H1        1.0  0.28541285528555976  0.20383627566268692  0.33454147003001417  1.0000
  H   H2        1.0  0.7145871432306519  0.7961637249956351  0.6654585292889376  1.0000
  H   H3        1.0  0.16752266890588763  0.0626439734630951  0.4787088582058065  1.0000
  H   H4        1.0  0.8324773299178789  0.9373560262752476  0.5212911419111134  1.0000
  H   H5        1.0  0.762760981809686  0.31315840034730646  0.7034576892706764  1.0000
  H   H6        1.0  0.23723901668412742  0.6868415993692588  0.29654231004699305  1.0000
  H   H7        1.0  0.8477391430647082  0.44623789848003537  0.5499259967104664  1.0000
  H   H8        1.0  0.1522608582374849  0.5537621012516254  0.4500740034033041  1.0000
  H   H9        1.0  0.6901405076073549  0.0765137478789046  0.939686217921728  1.0000
  H   H10       1.0  0.30985949369483806  0.9234862518527559  0.060313782192042385  1.0000
  H   H11       1.0  0.5862567743789349  0.9403799989973735  0.8528555023371215  1.0000
  H   H12       1.0  0.41374322692325827  0.05962000073428719  0.14714449777664904  1.0000
  H   H13       1.0  0.2631026389821073  0.044468027035802285  0.8856063038042463  1.0000
  H   H14       1.0  0.7368973623424839  0.9555319736376152  0.11439369631080627  1.0000
  C   C1        1.0  0.8910689907588213  0.4665524732545193  0.09865151943918231  1.0000
  C   C2        1.0  0.10893101054337184  0.5334475264771412  0.901348480674588  1.0000
  C   C3        1.0  0.38702616748421304  0.2250888596590401  0.4173532112040692  1.0000
  C   C4        1.0  0.6129738338403783  0.7749111410143772  0.5826467889109835  1.0000
  C   C5        1.0  0.45977780159141485  0.17562766802654817  0.6033893867333314  1.0000
  C   C6        1.0  0.5402221997107783  0.8243723317051126  0.396610613380439  1.0000
  C   C7        1.0  0.8974053227388658  0.591546662070568  0.06752730474881966  1.0000
  C   C8        1.0  0.10259467610729901  0.4084533386095316  0.9324726953693825  1.0000
  C   C9        1.0  0.32247326912914004  0.14586070271097876  0.4983766356240079  1.0000
  C   C10       1.0  0.6775267321954515  0.8541392979624387  0.5016233644910448  1.0000
  C   C11       1.0  0.6521540375565297  0.28553583781254366  0.6231042029503499  1.0000
  C   C12       1.0  0.3478459612672368  0.7144641619257991  0.37689579716657  1.0000
  C   C13       1.0  0.9958363309752658  0.37555816208590165  0.028878612412851872  1.0000
  C   C14       1.0  0.0041636703493254604  0.6244418385875158  0.9711213877022008  1.0000
  C   C15       1.0  0.39299563507722624  0.08913241437492724  0.6897682799031822  1.0000
  C   C16       1.0  0.6070043662249668  0.9108675853567333  0.3102317202105882  1.0000
  C   C17       1.0  0.700386493802285  0.3597574355779117  0.5368381842390496  1.0000
  C   C18       1.0  0.29961350469152837  0.6402425641386535  0.4631618150786198  1.0000
  C   C19       1.0  0.5248831061274263  0.038633398276535155  0.8708581264525035  1.0000
  C   C20       1.0  0.4751168951747669  0.9613666014551255  0.12914187366126703  1.0000
  N   N1        1.0  0.5727040067762231  0.33029650509440245  0.4357232320807237  1.0000
  N   N2        1.0  0.42729599452596995  0.6697034946372581  0.5642767680330467  1.0000
  O   O1        1.0  0.5798967934245725  0.11792791324439018  0.7834560891933211  1.0000
  O   O2        1.0  0.420103205399194  0.8820720864939524  0.2165439109235988  1.0000
  O   O3        1.0  0.19170813734802084  0.0017050818861490578  0.6769642469962778  1.0000
  O   O4        1.0  0.8082918636242191  0.998294917823734  0.32303575231824205  1.0000
  F   F1        1.0  0.9978798217312418  0.2516558157154439  0.054439615329377716  1.0000
  F   F2        1.0  0.0021201767625715503  0.7483441840011213  0.9455603839882918  1.0000
  F   F3        1.0  0.7971795062452788  0.6847371785086187  0.13170225237886804  1.0000
  F   F4        1.0  0.2028204926008858  0.3152628221714808  0.8682977477393342  1.0000
  I   I1        1.0  0.7441201117239429  0.41766284001495074  0.24754923284235597  1.0000
  I   I2        1.0  0.2558798895782503  0.5823371597167099  0.7524507672714145  1.0000
