data_image0
_chemical_formula_structural       H64C40N20O4
_chemical_formula_sum              "H64 C40 N20 O4"
_cell_length_a       14.175951465154958
_cell_length_b       11.321612313485401
_cell_length_c       7.109253311078075
_cell_angle_alpha    90.0
_cell_angle_beta     95.32004682076202
_cell_angle_gamma    90.0

_space_group_name_H-M_alt    "P 1"
_space_group_IT_number       1

loop_
  _space_group_symop_operation_xyz
  'x, y, z'

loop_
  _atom_site_type_symbol
  _atom_site_label
  _atom_site_symmetry_multiplicity
  _atom_site_fract_x
  _atom_site_fract_y
  _atom_site_fract_z
  _atom_site_occupancy
  H   H1        1.0  0.18705293306608847  0.4920042566168006  0.1285989478259882  1.0000
  H   H2        1.0  0.8129470671404643  0.9920042560212404  0.37140105155921194  1.0000
  H   H3        1.0  0.81294706740097  0.5079957439586121  0.8714010518028137  1.0000
  H   H4        1.0  0.18705293261812234  0.007995743670905794  0.6285989479387789  1.0000
  H   H5        1.0  0.20205703235685885  0.3591944952183284  0.9985767766830509  1.0000
  H   H6        1.0  0.7979429676622335  0.8591944955060348  0.5014232230585417  1.0000
  H   H7        1.0  0.7979429674017277  0.6408055044738178  0.001423222814939813  1.0000
  H   H8        1.0  0.20205703280482498  0.14080550418611149  0.49857677657026034  1.0000
  H   H9        1.0  0.18225957729312384  0.4902833877634489  0.44137321941341057  1.0000
  H   H10       1.0  0.817740422913516  0.9902833880511551  0.058626781378423136  1.0000
  H   H11       1.0  0.8177404231740217  0.5097166119286973  0.5586267816220251  1.0000
  H   H12       1.0  0.1822595768451577  0.009716611640991062  0.9413732195262012  1.0000
  H   H13       1.0  0.19374365832875218  0.3571873314530639  0.574001302136308  1.0000
  H   H14       1.0  0.8062563409818682  0.8571873317407702  0.9259986974744735  1.0000
  H   H15       1.0  0.8062563414298343  0.6428126682390822  0.42599869736168283  1.0000
  H   H16       1.0  0.1937436587767183  0.1428126688346424  0.0740013020235173  1.0000
  H   H17       1.0  0.014238247822536517  0.8726320577354699  0.23894371224573274  1.0000
  H   H18       1.0  0.9857617516756314  0.3726320574477636  0.26105628841528977  1.0000
  H   H19       1.0  0.9857617519361372  0.1273679428399427  0.7610562886588917  1.0000
  H   H20       1.0  0.014238248082955065  0.6273679422443825  0.7389437110827011  1.0000
  H   H21       1.0  0.3262096038504469  0.6930517441101494  0.30932425868134134  1.0000
  H   H22       1.0  0.673790396356193  0.193051743822443  0.19067574211049237  1.0000
  H   H23       1.0  0.6737903959082269  0.3069482564652633  0.690675742223283  1.0000
  H   H24       1.0  0.32620960411095257  0.8069482558697032  0.8093242589249432  1.0000
  H   H25       1.0  0.006664262241616288  0.5762065851901343  0.3656653965782602  1.0000
  H   H26       1.0  0.9933357379650236  0.07620658578569446  0.13433460421357354  1.0000
  H   H27       1.0  0.9933357375170575  0.42379341450201186  0.6343346043263642  1.0000
  H   H28       1.0  0.006664262502122042  0.9237934147897182  0.8656653968218619  1.0000
  H   H29       1.0  0.016519323047260618  0.5664543991107287  0.11997903426087139  1.0000
  H   H30       1.0  0.983480677159292  0.06645439882302238  0.38002096512432876  1.0000
  H   H31       1.0  0.9834806774197978  0.43354560058141756  0.8800209653679306  1.0000
  H   H32       1.0  0.01651932259929448  0.9335456008691239  0.6199790343736621  1.0000
  H   H33       1.0  0.9436670667397066  0.67699954986715  0.21027948870286167  1.0000
  H   H34       1.0  0.05633293346693323  0.17699955046271015  0.2897205120889721  1.0000
  H   H35       1.0  0.05633293372735177  0.32300044982499615  0.7897205109259402  1.0000
  H   H36       1.0  0.9436670662917405  0.8230004501127025  0.7102794888156523  1.0000
  H   H37       1.0  0.36226589367756445  0.9322457347729787  0.47456419657085497  1.0000
  H   H38       1.0  0.6377341058206036  0.4322457353685387  0.02543580409016755  1.0000
  H   H39       1.0  0.6377341060811093  0.06775426491916761  0.5254358043337694  1.0000
  H   H40       1.0  0.3622658939380702  0.567754265206874  0.9745641968144568  1.0000
  H   H41       1.0  0.31157132591067493  0.028000912875491814  0.2939077505035377  1.0000
  H   H42       1.0  0.6884286742958777  0.5280009122799317  0.20609224888166244  1.0000
  H   H43       1.0  0.6884286738479117  0.9719990876999208  0.7060922489944532  1.0000
  H   H44       1.0  0.31157132617118066  0.47199908741221447  0.7939077507471396  1.0000
  H   H45       1.0  0.38589459509049856  0.9076468435295225  0.2380125041267409  1.0000
  H   H46       1.0  0.6141054051161413  0.4076468441250827  0.26198749666509286  1.0000
  H   H47       1.0  0.614105405376647  0.09235315616262364  0.7619874969086947  1.0000
  H   H48       1.0  0.38589459464253245  0.5923531564503299  0.7380125042395316  1.0000
  H   H49       1.0  0.36860126664005005  0.44106530958069085  0.2770996976326745  1.0000
  H   H50       1.0  0.6313987335665027  0.9410653089851307  0.22290030175252562  1.0000
  H   H51       1.0  0.6313987331185364  0.5589346909947218  0.7229003018653163  1.0000
  H   H52       1.0  0.3686012669005558  0.058934690707015465  0.7770996978762764  1.0000
  H   H53       1.0  0.6336854851101756  0.7510320468995421  0.5563493294840989  1.0000
  H   H54       1.0  0.3663145149089166  0.2510320474951021  0.9436506702574937  1.0000
  H   H55       1.0  0.3663145146484108  0.24896795279260422  0.4436506700138918  1.0000
  H   H56       1.0  0.63368548484967  0.7489679530803105  0.056349329240497084  1.0000
  H   H57       1.0  0.5135957426638608  0.7981270988441228  0.5520318196858875  1.0000
  H   H58       1.0  0.4864042573552315  0.29812709855641645  0.9479681800557052  1.0000
  H   H59       1.0  0.4864042578031976  0.20187290084802348  0.4479681799429145  1.0000
  H   H60       1.0  0.513595742403355  0.7018729011357298  0.05203181944228563  1.0000
  H   H61       1.0  0.5628974798197902  0.768020040718312  0.33781287917866654  1.0000
  H   H62       1.0  0.4371025196782906  0.2680200404306056  0.16218712007572236  1.0000
  H   H63       1.0  0.4371025199387964  0.23197995985710068  0.6621871203193243  1.0000
  H   H64       1.0  0.5628974800802959  0.7319799592615406  0.8378128794222685  1.0000
  C   C1        1.0  0.1989242259762782  0.34046062904033125  0.2865205788486574  1.0000
  C   C2        1.0  0.8010757735218025  0.8404606284447712  0.21347942040573148  1.0000
  C   C3        1.0  0.8010757737823083  0.6595393715350814  0.7134794206493333  1.0000
  C   C4        1.0  0.19892422623678396  0.15953937124737502  0.7865205790922594  1.0000
  C   C5        1.0  0.09401341150866438  0.709539253559458  0.25700770851133253  1.0000
  C   C6        1.0  0.9059865886978882  0.20953925415501812  0.24299229087386762  1.0000
  C   C7        1.0  0.9059865889583941  0.29046074613268824  0.7429922911174694  1.0000
  C   C8        1.0  0.09401341106069824  0.7904607464203945  0.7570077086241231  1.0000
  C   C9        1.0  0.0846820733342997  0.8325567683299522  0.25726703138337914  1.0000
  C   C10       1.0  0.9153179268722531  0.33255676892551234  0.24273296800182098  1.0000
  C   C11       1.0  0.9153179264242868  0.16744323136219397  0.7427329681146115  1.0000
  C   C12       1.0  0.08468207359480545  0.6674432316499003  0.7572670316269812  1.0000
  C   C13       1.0  0.24587074359021271  0.8573730385060068  0.2991291800192453  1.0000
  C   C14       1.0  0.75412925661634  0.357373039101567  0.20087081936595486  1.0000
  C   C15       1.0  0.7541292561683739  0.14262696118613938  0.7008708194787456  1.0000
  C   C16       1.0  0.24587074385071847  0.6426269614738457  0.7991291802628472  1.0000
  C   C17       1.0  0.2558675057923379  0.7339746884021154  0.29590085807037536  1.0000
  C   C18       1.0  0.744132494414302  0.23397468899767548  0.20409914272145838  1.0000
  C   C19       1.0  0.7441324939663359  0.2660253112900308  0.704099142834249  1.0000
  C   C20       1.0  0.25586750534428454  0.7660253115777372  0.7959008567765324  1.0000
  C   C21       1.0  0.010479741136558154  0.628859700620518  0.23658851208878912  1.0000
  C   C22       1.0  0.9895202590700817  0.12885970033281172  0.2634114887030446  1.0000
  C   C23       1.0  0.9895202593305875  0.3711402999548946  0.7634114889466463  1.0000
  C   C24       1.0  0.01047974068859202  0.8711402993593345  0.7365885122015798  1.0000
  C   C25       1.0  0.33089225176922626  0.9362438640805936  0.32706940385758193  1.0000
  C   C26       1.0  0.6691077484374137  0.4362438637928872  0.17293059693425183  1.0000
  C   C27       1.0  0.6691077486979193  0.06375613561155269  0.6729305971778536  1.0000
  C   C28       1.0  0.3308922513212601  0.563756135899259  0.8270694039703727  1.0000
  C   C29       1.0  0.5300658750737273  0.61394076987787  0.4909452830447981  1.0000
  C   C30       1.0  0.46993412513282545  0.1139407704734301  0.009054716340401992  1.0000
  C   C31       1.0  0.4699341246848593  0.3860592298142762  0.5090547164531927  1.0000
  C   C32       1.0  0.530065875334233  0.8860592301019825  0.9909452832884  1.0000
  C   C33       1.0  0.4280844903909736  0.4673444835854052  0.3774305498800096  1.0000
  C   C34       1.0  0.5719155098156663  0.9673444838731116  0.12256945091182407  1.0000
  C   C35       1.0  0.5719155093677001  0.532655516106741  0.6225694510246147  1.0000
  C   C36       1.0  0.42808449065147935  0.032655516702301074  0.8774305501236116  1.0000
  C   C37       1.0  0.5624743823072038  0.739437757467493  0.48460787530591554  1.0000
  C   C38       1.0  0.4375256178994361  0.23943775717978663  0.015392125485918257  1.0000
  C   C39       1.0  0.43752561815994184  0.26056224222465324  0.5153921257295201  1.0000
  C   C40       1.0  0.5624743818592376  0.7605622425123596  0.9846078754187061  1.0000
  N   N1        1.0  0.1979458880925114  0.40314044003816396  0.12458719345442858  1.0000
  N   N2        1.0  0.8020541121141285  0.9031404394426038  0.3754128073374052  1.0000
  N   N3        1.0  0.8020541116661624  0.5968595605372486  0.8754128074501958  1.0000
  N   N4        1.0  0.19794588835292995  0.09685956024954237  0.6245871922913969  1.0000
  N   N5        1.0  0.18429226891077097  0.40046866245362595  0.44598883030203235  1.0000
  N   N6        1.0  0.8157077312958688  0.9004686627413323  0.05401117048980141  1.0000
  N   N7        1.0  0.8157077315563747  0.5995313372385204  0.5540111707334032  1.0000
  N   N8        1.0  0.18429226846271765  0.09953133783408039  0.9459888290081895  1.0000
  N   N9        1.0  0.18142155078159086  0.6609667433221148  0.2761278291540568  1.0000
  N   N10       1.0  0.8185784487164899  0.16096674303440853  0.22387217010033214  1.0000
  N   N11       1.0  0.8185784489769957  0.3390332572532978  0.723872170343934  1.0000
  N   N12       1.0  0.18142155104209662  0.8390332566577376  0.7761278293976588  1.0000
  N   N13       1.0  0.1589922702097683  0.9060718364098421  0.2784770027993617  1.0000
  N   N14       1.0  0.8410077299967844  0.40607183612213593  0.22152299658583846  1.0000
  N   N15       1.0  0.84100773025729  0.09392816328230397  0.7215229968294403  1.0000
  N   N16       1.0  0.15899226976180217  0.5939281635700102  0.7784770029121524  1.0000
  N   N17       1.0  0.4574316560979484  0.579378316301014  0.3673317434359327  1.0000
  N   N18       1.0  0.5425683441086043  0.07937831601330772  0.13266825594926743  1.0000
  N   N19       1.0  0.5425683443691101  0.4206216833911322  0.6326682561928693  1.0000
  N   N20       1.0  0.4574316556499822  0.9206216836788386  0.8673317435487234  1.0000
  O   O1        1.0  0.21265258753998179  0.2293079649890228  0.2889406524830477  1.0000
  O   O2        1.0  0.7873474126666581  0.7293079643934627  0.21105934830878606  1.0000
  O   O3        1.0  0.7873474122186921  0.7706920355863898  0.7110593484215767  1.0000
  O   O4        1.0  0.21265258780040033  0.2706920352986835  0.7889406513200159  1.0000
