data_image0
_chemical_formula_structural       H64C40N8O8S8I16
_chemical_formula_sum              "H64 C40 N8 O8 S8 I16"
_cell_length_a       14.52988609542281
_cell_length_b       14.891368156308733
_cell_length_c       9.277983679030323
_cell_angle_alpha    92.71882727680247
_cell_angle_beta     99.6567001136408
_cell_angle_gamma    99.92315012688049

_space_group_name_H-M_alt    "P 1"
_space_group_IT_number       1

loop_
  _space_group_symop_operation_xyz
  'x, y, z'

loop_
  _atom_site_type_symbol
  _atom_site_label
  _atom_site_symmetry_multiplicity
  _atom_site_fract_x
  _atom_site_fract_y
  _atom_site_fract_z
  _atom_site_occupancy
  H   H1        1.0  0.21366386692028302  0.2921157559726817  0.8087460006638623  1.0000
  H   H2        1.0  0.7863361328059745  0.7078842435152921  0.1912539990993385  1.0000
  H   H3        1.0  0.30774139637126474  0.2409681563292947  0.7589750458617407  1.0000
  H   H4        1.0  0.6922586034737004  0.75903184384066  0.24102495390685236  1.0000
  H   H5        1.0  0.342379788364818  0.40809342847248437  0.7380412085951892  1.0000
  H   H6        1.0  0.6576202121688064  0.5919065716997745  0.26195879117358667  1.0000
  H   H7        1.0  0.22924986132512054  0.40288582679412227  0.6218536270943625  1.0000
  H   H8        1.0  0.7707501392085039  0.5971141733781363  0.3781463726744132  1.0000
  H   H9        1.0  0.20816333100507917  0.32479442536927955  0.3749149277618142  1.0000
  H   H10       1.0  0.7918366694098374  0.6752055741209982  0.6250850720015694  1.0000
  H   H11       1.0  0.3064289418456733  0.2779355945577537  0.33133993793671024  1.0000
  H   H12       1.0  0.693571058687951  0.722064405614505  0.6686600618320655  1.0000
  H   H13       1.0  0.17508110389290696  0.1555370776164482  0.38861332599077725  1.0000
  H   H14       1.0  0.8249188965220097  0.8444629218738297  0.6113866737726062  1.0000
  H   H15       1.0  0.28544671091599394  0.1612899012678265  0.5101907794672356  1.0000
  H   H16       1.0  0.7145532889289713  0.8387100989021284  0.4898092203013575  1.0000
  H   H17       1.0  0.9864549919361243  0.24929073799274346  0.9633715049485686  1.0000
  H   H18       1.0  0.013545007908840933  0.7507092621772113  0.0366284948200247  1.0000
  H   H19       1.0  0.9412650577962403  0.12915108318847393  0.9579620497807164  1.0000
  H   H20       1.0  0.058734942863652884  0.8708489170341924  0.04203795108475247  1.0000
  H   H21       1.0  0.02979969799348361  0.18133139687141012  0.20451481925147677  1.0000
  H   H22       1.0  0.9702003018514817  0.8186686032985447  0.7954851805171165  1.0000
  H   H23       1.0  0.1300049599584577  0.23635099247815358  0.13179763350720822  1.0000
  H   H24       1.0  0.8699950398865075  0.7636490076918012  0.8682023662613849  1.0000
  H   H25       1.0  0.22119839454645118  0.13967356179510784  0.02104093181895038  1.0000
  H   H26       1.0  0.7788016059871732  0.860326438377151  0.9789590679498255  1.0000
  H   H27       1.0  0.18451486354375787  0.018507704075368413  0.020841136325901805  1.0000
  H   H28       1.0  0.8154851363012073  0.9814922960945864  0.9791588634426914  1.0000
  H   H29       1.0  0.037767682777325604  0.022104578832666633  0.8431387921735728  1.0000
  H   H30       1.0  0.9622323170676396  0.9778954213372882  0.15686120759502037  1.0000
  H   H31       1.0  0.1383596837102021  0.076092016629321  0.7707902917014358  1.0000
  H   H32       1.0  0.8616403168234223  0.9239079835429378  0.2292097080673401  1.0000
  H   H33       1.0  0.7986811569555641  0.22311380524321736  0.3412512499094828  1.0000
  H   H34       1.0  0.2013188427706933  0.7768861942447564  0.6587487498537181  1.0000
  H   H35       1.0  0.6784497884267859  0.16866130665501092  0.33865332912282514  1.0000
  H   H36       1.0  0.3215502122331072  0.8313386935676553  0.6613466717426437  1.0000
  H   H37       1.0  0.674333002514193  0.08048656822242242  0.10525490409718151  1.0000
  H   H38       1.0  0.32566699790072356  0.9195134312678553  0.894745095666202  1.0000
  H   H39       1.0  0.7750964389308704  0.06554251304887446  0.23626531894238403  1.0000
  H   H40       1.0  0.22490356160275385  0.9344574871233843  0.7637346808263918  1.0000
  H   H41       1.0  0.8162547114378605  0.23120584561397883  0.9052928454699548  1.0000
  H   H42       1.0  0.18374528853337346  0.7687941546063835  0.09470715539533135  1.0000
  H   H43       1.0  0.6989792256048684  0.17586826459896326  0.9158359631281464  1.0000
  H   H44       1.0  0.30102077492875606  0.8241317355732956  0.08416403664062953  1.0000
  H   H45       1.0  0.8257225457348841  0.3305957432818747  0.12832217255462114  1.0000
  H   H46       1.0  0.17427745411008108  0.66940425688808  0.871677827213972  1.0000
  H   H47       1.0  0.7227147724815006  0.33989544667253624  0.0009220894140193535  1.0000
  H   H48       1.0  0.27728522736346456  0.6601045534974186  0.9990779103545737  1.0000
  H   H49       1.0  0.4867474329701526  0.26407308084890085  0.5413971310853259  1.0000
  H   H50       1.0  0.5132525667561049  0.7359269186390728  0.45860286867787486  1.0000
  H   H51       1.0  0.5315966638687332  0.38062977010996585  0.6086289271552235  1.0000
  H   H52       1.0  0.468403335976232  0.6193702300599887  0.3913710726133696  1.0000
  H   H53       1.0  0.5789947734284262  0.27966385942391675  0.8005252518777928  1.0000
  H   H54       1.0  0.4210052271051982  0.7203361407483421  0.1994747478909831  1.0000
  H   H55       1.0  0.6297555532621927  0.21604183901622426  0.6754692814931297  1.0000
  H   H56       1.0  0.37024444670904116  0.7839581612041379  0.3245307193721565  1.0000
  H   H57       1.0  0.7766888956490186  0.2993464995867378  0.5986821021590054  1.0000
  H   H58       1.0  0.22331110419594657  0.7006535005832168  0.4013178976095878  1.0000
  H   H59       1.0  0.8155255755199099  0.415864464225381  0.673116652304322  1.0000
  H   H60       1.0  0.1844744243250554  0.5841355359445738  0.3268833474642713  1.0000
  H   H61       1.0  0.7317379564417794  0.4019890784224053  0.40657230997337107  1.0000
  H   H62       1.0  0.2682620439731372  0.5980109210678726  0.5934276897900124  1.0000
  H   H63       1.0  0.6758458882270755  0.4625567353689095  0.5271919082991645  1.0000
  H   H64       1.0  0.3241541116178897  0.5374432648010453  0.47280809146942876  1.0000
  C   C1        1.0  0.09303565952156374  0.18495829573592062  0.6061951947074062  1.0000
  C   C2        1.0  0.9069643403234015  0.8150417044340341  0.393804805061187  1.0000
  C   C3        1.0  0.05427778622317989  0.21601247629428427  0.7354793225876934  1.0000
  C   C4        1.0  0.9457222136217852  0.7839875238756705  0.2645206771808997  1.0000
  C   C5        1.0  0.24944723400667504  0.2768032174321908  0.7179596836462103  1.0000
  C   C6        1.0  0.7505527658382901  0.723196782737764  0.28204031612238284  1.0000
  C   C7        1.0  0.2879831928078244  0.36547756886323124  0.6543934266897776  1.0000
  C   C8        1.0  0.7120168071634095  0.634522431357131  0.3456065741755086  1.0000
  C   C9        1.0  0.2668223749537706  0.28996584503636624  0.4190237110706101  1.0000
  C   C10       1.0  0.7331776250174634  0.710034155183996  0.5809762897946761  1.0000
  C   C11       1.0  0.22756697405263324  0.19861886570008158  0.47403649321915886  1.0000
  C   C12       1.0  0.7724330266072599  0.8013811345225846  0.5259635076463101  1.0000
  C   C13       1.0  0.006050590605649393  0.18148232389235214  0.9698295935148217  1.0000
  C   C14       1.0  0.9939494092393159  0.8185176762776027  0.03017040625377156  1.0000
  C   C15       1.0  0.07046340572111158  0.1776445686104539  0.11556011742859182  1.0000
  C   C16       1.0  0.9295365942501225  0.8223554316099084  0.8844398834366944  1.0000
  C   C17       1.0  0.1590865098215223  0.08349419024295918  0.008902348712992853  1.0000
  C   C18       1.0  0.8409134901497116  0.9165058099774029  0.9910976521522935  1.0000
  C   C19       1.0  0.09670606461800828  0.08111565504790494  0.8581031881363804  1.0000
  C   C20       1.0  0.903293936041885  0.9188843451747614  0.1418968127290884  1.0000
  C   C21       1.0  0.6294320358145035  0.30951003919021375  0.2074446867326049  1.0000
  C   C22       1.0  0.3705679640304617  0.6904899609797411  0.7925553130359883  1.0000
  C   C23       1.0  0.5755032589711687  0.2813567329928907  0.32686864861007847  1.0000
  C   C24       1.0  0.4244967408737966  0.7186432671770641  0.6731313511585147  1.0000
  C   C25       1.0  0.7304138917204382  0.19366911422163155  0.27007954261680933  1.0000
  C   C26       1.0  0.26958610800581917  0.8063308852663422  0.7299204571463915  1.0000
  C   C27       1.0  0.7437254467864611  0.11483636061876387  0.16874779750426833  1.0000
  C   C28       1.0  0.2562745529397963  0.8851636388692098  0.8312522022589326  1.0000
  C   C29       1.0  0.7677969794405752  0.20976824810113576  0.9810087987874082  1.0000
  C   C30       1.0  0.23220302040438986  0.790231752068819  0.018991200981185046  1.0000
  C   C31       1.0  0.7559833473888978  0.2931676992682959  0.07149407358459246  1.0000
  C   C32       1.0  0.2440166523373597  0.706832300219678  0.9285059261786084  1.0000
  C   C33       1.0  0.5513020005142624  0.3153647566132573  0.5774589458105996  1.0000
  C   C34       1.0  0.44869800001936194  0.6846352435590016  0.42254105395817604  1.0000
  C   C35       1.0  0.6150085031612555  0.2842037186124098  0.7054249520384711  1.0000
  C   C36       1.0  0.3849914966837096  0.7157962815575449  0.294575047730122  1.0000
  C   C37       1.0  0.7528725441332295  0.36288219546791084  0.6312054604742321  1.0000
  C   C38       1.0  0.2471274557117358  0.6371178047020439  0.36879453929436107  1.0000
  C   C39       1.0  0.6930488181745805  0.39558177571898917  0.4983937557119798  1.0000
  C   C40       1.0  0.3069511823590439  0.6044182244532695  0.5016062440567961  1.0000
  N   N1        1.0  0.18375994240183263  0.21605962337866805  0.60138829861311  1.0000
  N   N2        1.0  0.8162400582580606  0.7839403768439982  0.39861170225235876  1.0000
  N   N3        1.0  0.05476990064183574  0.16416730970609036  0.8480690993165372  1.0000
  N   N4        1.0  0.9452300990844216  0.8358326897818833  0.15193090044666369  1.0000
  N   N5        1.0  0.6984509948054943  0.26580939731915637  0.18260269873740198  1.0000
  N   N6        1.0  0.3015490058543987  0.7341906029035098  0.8173973021280668  1.0000
  N   N7        1.0  0.6033998429618286  0.32999804694361906  0.45594016457696146  1.0000
  N   N8        1.0  0.39660015688313655  0.6700019532263357  0.5440598351916316  1.0000
  O   O1        1.0  0.33218835376211653  0.34801193642920636  0.5321989838453284  1.0000
  O   O2        1.0  0.667811645964141  0.6519880630587676  0.46780101591787243  1.0000
  O   O3        1.0  0.10580116189532586  0.09366096654653834  0.1231177061834536  1.0000
  O   O4        1.0  0.8941988386382985  0.9063390336257205  0.8768822935853222  1.0000
  O   O5        1.0  0.8072919243442866  0.14574302316136487  0.07187211087181218  1.0000
  O   O6        1.0  0.1927080755006786  0.8542569770085899  0.9281278888967811  1.0000
  O   O7        1.0  0.7016204657482923  0.3486302429895892  0.7487184889758165  1.0000
  O   O8        1.0  0.2983795339779651  0.6513697564983845  0.25128151078738437  1.0000
  S   S1        1.0  0.0159471279216903  0.1144354867812313  0.47604112634712753  1.0000
  S   S2        1.0  0.9840528720495437  0.8855645134391309  0.5239588745181586  1.0000
  S   S3        1.0  0.009899820371828611  0.31388897048983583  0.7294333748323808  1.0000
  S   S4        1.0  0.9901001795994053  0.6861110297305264  0.27056662603290543  1.0000
  S   S5        1.0  0.600800430973364  0.39794761034786624  0.11321519148483093  1.0000
  S   S6        1.0  0.3991995694415527  0.6020523891424117  0.8867848082785527  1.0000
  S   S7        1.0  0.48162396778028155  0.19436113671902644  0.2927262969593719  1.0000
  S   S8        1.0  0.5183760320646836  0.8056388634509283  0.7072737028092212  1.0000
  I   I1        1.0  0.8454246699535714  0.07315705173630793  0.5824136211601977  1.0000
  I   I2        1.0  0.154575329772686  0.9268429477516658  0.417586378603003  1.0000
  I   I3        1.0  0.6668347870816158  0.02569538185755027  0.6713811529455099  1.0000
  I   I4        1.0  0.33316521345200856  0.9743046183147085  0.3286188468232659  1.0000
  I   I5        1.0  0.004412729924273806  0.3702535037528649  0.4529217336907033  1.0000
  I   I6        1.0  0.9955872698019836  0.6297464957351089  0.5470782660724974  1.0000
  I   I7        1.0  0.993270837011597  0.4468502684559126  0.17173700357669466  1.0000
  I   I8        1.0  0.0067291629596369935  0.5531497317644497  0.8282629972885914  1.0000
  I   I9        1.0  0.41097955331958863  0.40840500542150293  0.10893008571564936  1.0000
  I   I10       1.0  0.5890204464066688  0.5915949940664708  0.8910699140475515  1.0000
  I   I11       1.0  0.21689780780396636  0.42353636259356453  0.07177709740628432  1.0000
  I   I12       1.0  0.7831021921672676  0.5764636376267976  0.9282229034590019  1.0000
  I   I13       1.0  0.45534782901299037  0.13474192262567983  0.9971649661944921  1.0000
  I   I14       1.0  0.544652170713267  0.865258076862294  0.002835033568708761  1.0000
  I   I15       1.0  0.4200182674590286  0.06804752719374677  0.6958538704310188  1.0000
  I   I16       1.0  0.5799817325122053  0.9319524730266157  0.3041461304342675  1.0000
