data_image0
_chemical_formula_structural       H16C36N4F8Br4
_chemical_formula_sum              "H16 C36 N4 F8 Br4"
_cell_length_a       14.912604858038556
_cell_length_b       5.266147581870028
_cell_length_c       11.177636884131587
_cell_angle_alpha    90.0
_cell_angle_beta     111.67266574197079
_cell_angle_gamma    90.0

_space_group_name_H-M_alt    "P 1"
_space_group_IT_number       1

loop_
  _space_group_symop_operation_xyz
  'x, y, z'

loop_
  _atom_site_type_symbol
  _atom_site_label
  _atom_site_symmetry_multiplicity
  _atom_site_fract_x
  _atom_site_fract_y
  _atom_site_fract_z
  _atom_site_occupancy
  H   H1        1.0  0.2754444438590744  0.6534811674947347  0.09685058202412573  1.0000
  H   H2        1.0  0.7245555559906453  0.15348116767228653  0.40314941778352353  1.0000
  H   H3        1.0  0.7245555564947554  0.3465188321501617  0.903149417960334  1.0000
  H   H4        1.0  0.27544444369136795  0.8465188319726098  0.596850582196419  1.0000
  H   H5        1.0  0.1412861744475824  0.6657492418309763  0.36101401715149817  1.0000
  H   H6        1.0  0.8587138254021373  0.16574924200852806  0.13898598265615109  1.0000
  H   H7        1.0  0.8587138252344307  0.33425075781392016  0.6389859828284443  1.0000
  H   H8        1.0  0.14128617427987594  0.8342507576363684  0.8610140173237915  1.0000
  H   H9        1.0  0.16996386831201996  0.3058935217740272  0.9714037856494323  1.0000
  H   H10       1.0  0.8300361318741034  0.8058935215964754  0.5285962145073205  1.0000
  H   H11       1.0  0.8300361320418098  0.6941064797697906  0.028596214335027324  1.0000
  H   H12       1.0  0.16996386780790976  0.19410647994734237  0.471403785472622  1.0000
  H   H13       1.0  0.028660263304045117  0.31829559919108424  0.2478538288059794  1.0000
  H   H14       1.0  0.9713397372174911  0.8182956009124538  0.25214617100618714  1.0000
  H   H15       1.0  0.9713397370497848  0.6817044004538122  0.7521461711784804  1.0000
  H   H16       1.0  0.028660263136338616  0.18170440063136395  0.7478538289782726  1.0000
  C   C1        1.0  0.4306448773237368  0.3131570895729412  0.435777500127601  1.0000
  C   C2        1.0  0.5693551225259827  0.8131570893953893  0.06422249968004826  1.0000
  C   C3        1.0  0.5693551223582763  0.6868429100719552  0.5642224998523414  1.0000
  C   C4        1.0  0.430644877827847  0.18684291024950703  0.9357775003044114  1.0000
  C   C5        1.0  0.515295735996015  0.33958248837473165  0.4111686957505426  1.0000
  C   C6        1.0  0.4847042638537046  0.8395824881971798  0.0888313040571067  1.0000
  C   C7        1.0  0.48470426435781483  0.6604175112701648  0.5888313042339172  1.0000
  C   C8        1.0  0.5152957358283086  0.16041751144771654  0.9111686959228358  1.0000
  C   C9        1.0  0.41673682134715184  0.47644909509144956  0.5254554391758193  1.0000
  C   C10       1.0  0.5832631785756378  0.9764490949138978  0.9745445600182465  1.0000
  C   C11       1.0  0.583263179006678  0.5235509045534469  0.47454456080864044  1.0000
  C   C12       1.0  0.41673682110637533  0.023550904730998662  0.025455439961695903  1.0000
  C   C13       1.0  0.026546525100380882  0.0854338912849526  0.029607785202541648  1.0000
  C   C14       1.0  0.9734534747493387  0.5854338911074007  0.4703922146051076  1.0000
  C   C15       1.0  0.9734534752534489  0.9145661083599438  0.9703922147819181  1.0000
  C   C16       1.0  0.026546524932674422  0.4145661085374956  0.5296077853748349  1.0000
  C   C17       1.0  0.2190197101677945  0.5764752302900663  0.1263976375778614  1.0000
  C   C18       1.0  0.780980289681925  0.07647523046761807  0.3736023622297879  1.0000
  C   C19       1.0  0.7809802901860352  0.42352476935483013  0.8736023624065983  1.0000
  C   C20       1.0  0.21901971000008802  0.9235247710761997  0.6263976377501546  1.0000
  C   C21       1.0  0.14457010474644372  0.5828131726817506  0.27313602898572104  1.0000
  C   C22       1.0  0.8554298951032759  0.08281317285930241  0.22686397082192827  1.0000
  C   C23       1.0  0.8554298949355694  0.4171868269631458  0.7268639709942214  1.0000
  C   C24       1.0  0.1445701045787372  0.917186826785594  0.7731360291580142  1.0000
  C   C25       1.0  0.08857897474772086  0.28343911118988446  0.09781378558617163  1.0000
  C   C26       1.0  0.9114210251019987  0.7834391110123327  0.4021862142214777  1.0000
  C   C27       1.0  0.9114210249342923  0.716560888455012  0.9021862143937709  1.0000
  C   C28       1.0  0.08857897525183107  0.21656088863256373  0.597813785762982  1.0000
  C   C29       1.0  0.15976328430372272  0.38196462380298796  0.05604787870274655  1.0000
  C   C30       1.0  0.8402367158093306  0.8819646236254362  0.4439521220675899  1.0000
  C   C31       1.0  0.8402367160501072  0.6180353758419085  0.9439521212817131  1.0000
  C   C32       1.0  0.15976328387268252  0.11803537601946024  0.5560478779123527  1.0000
  C   C33       1.0  0.08179328545126488  0.38823626915408005  0.21023851765608514  1.0000
  C   C34       1.0  0.9182067143984547  0.8882362689765283  0.28976148215156416  1.0000
  C   C35       1.0  0.9182067142307482  0.6117637304908163  0.7897614823238572  1.0000
  C   C36       1.0  0.08179328595537506  0.11176373066836816  0.7102385178328955  1.0000
  N   N1        1.0  0.2118280306171214  0.6780027438448878  0.2325874864786876  1.0000
  N   N2        1.0  0.7881719692325984  0.17800274402243962  0.26741251332896177  1.0000
  N   N3        1.0  0.7881719697367084  0.32199725580000854  0.7674125135057721  1.0000
  N   N4        1.0  0.2118280304494149  0.8219972575213781  0.7325874866509807  1.0000
  F   F1        1.0  0.5337174995776889  0.18252821537118166  0.32719662113411047  1.0000
  F   F2        1.0  0.4662825002720307  0.6825282151936298  0.17280337867353884  1.0000
  F   F3        1.0  0.46628250077614103  0.817471786172636  0.6728033788503494  1.0000
  F   F4        1.0  0.5337174994099823  0.3174717863501879  0.8271966213064036  1.0000
  F   F5        1.0  0.3348506938441068  0.4597083052390135  0.5508029163118493  1.0000
  F   F6        1.0  0.6651493056701999  0.9597083050614618  0.9491970838403864  1.0000
  F   F7        1.0  0.6651493058379062  0.5402916944058829  0.44919708366809313  1.0000
  F   F8        1.0  0.3348506940118133  0.04029169458343464  0.05080291613955617  1.0000
  Br  Br1       1.0  0.3381138356985967  0.059872714370081584  0.35240522474647085  1.0000
  Br  Br2       1.0  0.6618861641511229  0.5598727141925298  0.1475947750611784  1.0000
  Br  Br3       1.0  0.6618861646552331  0.9401272852748148  0.6475947752379889  1.0000
  Br  Br4       1.0  0.33811383553089025  0.4401272854523666  0.8524052249187641  1.0000
