data_image0
_chemical_formula_structural       H20C36N4Br8
_chemical_formula_sum              "H20 C36 N4 Br8"
_cell_length_a       3.842179683278671
_cell_length_b       13.140366945223958
_cell_length_c       18.153171666596375
_cell_angle_alpha    72.79687019458248
_cell_angle_beta     85.75377599716273
_cell_angle_gamma    83.98793279662075

_space_group_name_H-M_alt    "P 1"
_space_group_IT_number       1

loop_
  _space_group_symop_operation_xyz
  'x, y, z'

loop_
  _atom_site_type_symbol
  _atom_site_label
  _atom_site_symmetry_multiplicity
  _atom_site_fract_x
  _atom_site_fract_y
  _atom_site_fract_z
  _atom_site_occupancy
  H   H1        1.0  0.6221604186627061  0.027391341508176792  0.12574504067472583  1.0000
  H   H2        1.0  0.37783958346283125  0.9726086582580588  0.8742549595214445  1.0000
  H   H3        1.0  0.47137175999924036  0.4719894021457284  0.37055498577635226  1.0000
  H   H4        1.0  0.5286282396394272  0.5280105978529419  0.629445013843148  1.0000
  H   H5        1.0  0.42239896258263115  0.8184597551711981  0.7758734979339462  1.0000
  H   H6        1.0  0.5776010369400898  0.1815402445948201  0.22412650226281383  1.0000
  H   H7        1.0  0.36582790462554815  0.8297690536065827  0.6373589585502302  1.0000
  H   H8        1.0  0.6341720950131194  0.17023094639208755  0.36264104106927014  1.0000
  H   H9        1.0  0.7467078802850637  0.13167149985034768  0.6130181015934741  1.0000
  H   H10       1.0  0.25329211896355164  0.868328500680763  0.386981898603609  1.0000
  H   H11       1.0  0.8196100315139111  0.10532081092063005  0.7526139070042398  1.0000
  H   H12       1.0  0.1803899680088097  0.8946791888453882  0.2473860931925202  1.0000
  H   H13       1.0  0.07712844569911  0.3042475859320108  0.2919470027287088  1.0000
  H   H14       1.0  0.9228715538236109  0.6957524138340073  0.7080529974680512  1.0000
  H   H15       1.0  0.9374391041615875  0.3187990250757193  0.15706187179669356  1.0000
  H   H16       1.0  0.06256089796394965  0.6812009746905162  0.8429381283994769  1.0000
  H   H17       1.0  0.32019515194578085  0.6326632029437735  0.087914573936758  1.0000
  H   H18       1.0  0.6798048476928867  0.3673367970548968  0.9120854256827422  1.0000
  H   H19       1.0  0.44500572152054824  0.6043830254098802  0.22556186964421343  1.0000
  H   H20       1.0  0.5549942780021725  0.395616974356138  0.7744381305525466  1.0000
  C   C1        1.0  0.5633202857030245  0.015295911831278392  0.0709818019380037  1.0000
  C   C2        1.0  0.43667971393564287  0.9847040881673919  0.9290181976814966  1.0000
  C   C3        1.0  0.651671884213612  0.9162320456935097  0.05798823258949608  1.0000
  C   C4        1.0  0.34832811530910895  0.08376795407250831  0.942011767607264  1.0000
  C   C5        1.0  0.5902972525486413  0.9007190179778729  0.9870654569340886  1.0000
  C   C6        1.0  0.4097027466999741  0.09928098255323788  0.01293454326299439  1.0000
  C   C7        1.0  0.48898962630413345  0.4843876222847149  0.42714967018511163  1.0000
  C   C8        1.0  0.5110103733345341  0.5156123777139555  0.5728503294343886  1.0000
  C   C9        1.0  0.40155816158123125  0.40379412512215795  0.49350624655903835  1.0000
  C   C10       1.0  0.5984418379414895  0.5962058746438601  0.5064937536377218  1.0000
  C   C11       1.0  0.4119422851801556  0.4195453355336779  0.5663524751267884  1.0000
  C   C12       1.0  0.588057714458512  0.5804546644649925  0.43364752449271177  1.0000
  C   C13       1.0  0.2696360697596725  0.8862101868728324  0.7382076754090646  1.0000
  C   C14       1.0  0.7303639323658647  0.11378981289340317  0.2617923247871057  1.0000
  C   C15       1.0  0.2411375313023419  0.89245718045178  0.6609719638090473  1.0000
  C   C16       1.0  0.7588624682203788  0.10754281931423797  0.3390280363877127  1.0000
  C   C17       1.0  0.052197690756455445  0.9826067534173879  0.6132760838798234  1.0000
  C   C18       1.0  0.9478023087662654  0.01739324634863031  0.38672391631693664  1.0000
  C   C19       1.0  0.8978476910666304  0.06090740354056008  0.6471285446818873  1.0000
  C   C20       1.0  0.1021523085720369  0.9390925964581104  0.35287145493761307  1.0000
  C   C21       1.0  0.939670714141836  0.04580657016191858  0.7251977622382758  1.0000
  C   C22       1.0  0.06032928770959587  0.9541934303694095  0.27480223795821757  1.0000
  C   C23       1.0  0.016894852948459625  0.9944269868295931  0.5341308845634192  1.0000
  C   C24       1.0  0.9831051491770777  0.005573012936642429  0.46586911563275124  1.0000
  C   C25       1.0  0.13063604083234343  0.37587179688657046  0.2450851299674697  1.0000
  C   C26       1.0  0.8693639612931936  0.6241282028796651  0.7549148702287006  1.0000
  C   C27       1.0  0.0522913473159168  0.3835860560892613  0.16986760139445017  1.0000
  C   C28       1.0  0.947708652206804  0.6164139436767567  0.8301323988023098  1.0000
  C   C29       1.0  0.11797364309945622  0.47768976546102304  0.11078267601449937  1.0000
  C   C30       1.0  0.8820263561491595  0.5223102350700876  0.8892173241825837  1.0000
  C   C31       1.0  0.26310801028942693  0.5586881244303754  0.13147738226215153  1.0000
  C   C32       1.0  0.7368919892332939  0.4413118753356428  0.8685226179346085  1.0000
  C   C33       1.0  0.33150246216896595  0.5424716958769938  0.20843894277729558  1.0000
  C   C34       1.0  0.6684975374697016  0.45752830412167655  0.7915610568422047  1.0000
  C   C35       1.0  0.03674777777776026  0.49227230841308944  0.033439403690679395  1.0000
  C   C36       1.0  0.9632522217449605  0.5077276913529288  0.9665605965060805  1.0000
  N   N1        1.0  0.12346194690483862  0.9608124949908459  0.7708046109226571  1.0000
  N   N2        1.0  0.8765380552206986  0.039187504775389626  0.22919538927351327  1.0000
  N   N3        1.0  0.26818201148714915  0.45318039861611026  0.2651258248745337  1.0000
  N   N4        1.0  0.7318179903642826  0.5468196019152178  0.7348741753219596  1.0000
  Br  Br1       1.0  0.8497361066503812  0.8032761660436065  0.13933984239088526  1.0000
  Br  Br2       1.0  0.15026389298828627  0.19672383395506374  0.8606601572286151  1.0000
  Br  Br3       1.0  0.7151509511549257  0.7678647964029607  0.9669624076545343  1.0000
  Br  Br4       1.0  0.28484904836779534  0.2321352033630573  0.03303759254222568  1.0000
  Br  Br5       1.0  0.27376131798848585  0.2736776353426712  0.48191137159878744  1.0000
  Br  Br6       1.0  0.726238681534235  0.7263223644233469  0.5180886285979726  1.0000
  Br  Br7       1.0  0.29200695657167636  0.31257044407521756  0.6580337827603588  1.0000
  Br  Br8       1.0  0.7079930426769392  0.6874295564558932  0.3419662174367242  1.0000
