data_image0
_chemical_formula_structural       H80C96N16O8S8
_chemical_formula_sum              "H80 C96 N16 O8 S8"
_cell_length_a       16.704913450876003
_cell_length_b       9.486249382381684
_cell_length_c       15.167035141369194
_cell_angle_alpha    90.0
_cell_angle_beta     117.44666022469423
_cell_angle_gamma    90.0

_space_group_name_H-M_alt    "P 1"
_space_group_IT_number       1

loop_
  _space_group_symop_operation_xyz
  'x, y, z'

loop_
  _atom_site_type_symbol
  _atom_site_label
  _atom_site_symmetry_multiplicity
  _atom_site_fract_x
  _atom_site_fract_y
  _atom_site_fract_z
  _atom_site_occupancy
  H   H1        1.0  0.13468902197829816  0.3504112474813972  0.5028981415134272  1.0000
  H   H2        1.0  0.6346890219572795  0.8504112473558637  0.5028981411902278  1.0000
  H   H3        1.0  0.8653109783555315  0.3504112474813972  0.9971018588624638  1.0000
  H   H4        1.0  0.36531097837655013  0.8504112473558637  0.9971018591856632  1.0000
  H   H5        1.0  0.8653109777808382  0.6495887522675358  0.49710185873339796  1.0000
  H   H6        1.0  0.36531097780140953  0.14958875239306926  0.4971018583970457  1.0000
  H   H7        1.0  0.13468902207771125  0.6495887522675358  0.0028981410668152074  1.0000
  H   H8        1.0  0.63468902205714  0.14958875239306926  0.0028981414031675097  1.0000
  H   H9        1.0  0.04483473160552596  0.2437405624497178  0.49448303103295294  1.0000
  H   H10       1.0  0.5448347315849545  0.7437405623241843  0.4944830313693051  1.0000
  H   H11       1.0  0.9551652682530235  0.2437405624497178  0.005516968767260269  1.0000
  H   H12       1.0  0.4551652682740422  0.7437405623241843  0.005516969090459636  1.0000
  H   H13       1.0  0.9551652681531629  0.7562594372992152  0.5055169685543206  1.0000
  H   H14       1.0  0.45516526817418174  0.2562594374247487  0.50551696887752  1.0000
  H   H15       1.0  0.04483473150566543  0.7562594372992152  0.9944830308200132  1.0000
  H   H16       1.0  0.5448347314850941  0.2562594374247487  0.9944830311563654  1.0000
  H   H17       1.0  0.06458472381770847  0.9441392502957116  0.5023453197605331  1.0000
  H   H18       1.0  0.5645847237966898  0.444139250421245  0.5023453194373337  1.0000
  H   H19       1.0  0.9354152765161211  0.9441392502957116  0.9976546806153579  1.0000
  H   H20       1.0  0.4354152765371398  0.444139250421245  0.9976546809385571  1.0000
  H   H21       1.0  0.9354152766159816  0.05586074945322145  0.49765468082829756  1.0000
  H   H22       1.0  0.4354152759619992  0.5558607493276879  0.49765468014993974  1.0000
  H   H23       1.0  0.06458472391712156  0.05586074945322145  0.002345319313921178  1.0000
  H   H24       1.0  0.5645847238965503  0.5558607493276879  0.00234531965027348  1.0000
  H   H25       1.0  0.1587332056831718  0.8716374392767686  0.49403683357541495  1.0000
  H   H26       1.0  0.6587332056626005  0.3716374394023022  0.4940368339117673  1.0000
  H   H27       1.0  0.8412667941753776  0.8716374392767686  0.005963166224798136  1.0000
  H   H28       1.0  0.34126679419594896  0.3716374394023022  0.005963165888445929  1.0000
  H   H29       1.0  0.8412667940755171  0.12836256047216427  0.5059631660118584  1.0000
  H   H30       1.0  0.3412667940965359  0.6283625603466307  0.5059631663350579  1.0000
  H   H31       1.0  0.1587332062583124  0.12836256047216427  0.9940368343640323  1.0000
  H   H32       1.0  0.6587332062372937  0.6283625603466307  0.9940368340408331  1.0000
  H   H33       1.0  0.9232599078424804  0.9352226008813395  0.3565627192758514  1.0000
  H   H34       1.0  0.423259907863499  0.4352226010068731  0.3565627195990508  1.0000
  H   H35       1.0  0.07674009269062286  0.9352226008813395  0.14343728086636726  1.0000
  H   H36       1.0  0.5767400926696041  0.4352226010068731  0.14343728054316787  1.0000
  H   H37       1.0  0.07674009259076234  0.0647773999217508  0.6434372806534276  1.0000
  H   H38       1.0  0.5767400925701911  0.5647773997962172  0.6434372809897798  1.0000
  H   H39       1.0  0.9232599077430672  0.0647773999217508  0.8565627197224632  1.0000
  H   H40       1.0  0.4232599077636385  0.5647773997962172  0.8565627193861111  1.0000
  H   H41       1.0  0.167297048443069  0.9398299834451139  0.32664276741561404  1.0000
  H   H42       1.0  0.6672970484224976  0.4398299835706474  0.32664276775196627  1.0000
  H   H43       1.0  0.8327029520900341  0.9398299834451139  0.1733572327266047  1.0000
  H   H44       1.0  0.3327029521106054  0.4398299835706474  0.17335723239025244  1.0000
  H   H45       1.0  0.8327029519901735  0.060170016303819115  0.673357232513665  1.0000
  H   H46       1.0  0.3327029520111924  0.5601700161782855  0.6733572328368643  1.0000
  H   H47       1.0  0.1672970483436559  0.060170016303819115  0.8266427678622258  1.0000
  H   H48       1.0  0.6672970483226371  0.5601700161782855  0.8266427675390265  1.0000
  H   H49       1.0  0.16740513061589424  0.2732088389762849  0.34099713926727365  1.0000
  H   H50       1.0  0.667405130595323  0.7732088388507513  0.34099713960362593  1.0000
  H   H51       1.0  0.8325948692426551  0.2732088389762849  0.1590028605329395  1.0000
  H   H52       1.0  0.332594869263674  0.7732088388507513  0.1590028608561389  1.0000
  H   H53       1.0  0.8325948698173484  0.726791160772648  0.6590028606620053  1.0000
  H   H54       1.0  0.33259486916381337  0.22679116089818152  0.6590028606431991  1.0000
  H   H55       1.0  0.16740513051603373  0.726791160772648  0.8409971390543339  1.0000
  H   H56       1.0  0.6674051304954625  0.22679116089818152  0.8409971393906863  1.0000
  H   H57       1.0  0.7896028608787219  0.27074414412613435  0.36778151712858914  1.0000
  H   H58       1.0  0.28960286089974063  0.7707441450547582  0.3677815174517885  1.0000
  H   H59       1.0  0.21039713897982756  0.27074414412613435  0.13221848267162403  1.0000
  H   H60       1.0  0.7103971389588088  0.7707441450547582  0.13221848234842468  1.0000
  H   H61       1.0  0.21039713955452072  0.7292558556227985  0.6322184828006898  1.0000
  H   H62       1.0  0.7103971395339495  0.2292558557483321  0.6322184831370421  1.0000
  H   H63       1.0  0.7896028607788614  0.7292558556227985  0.8677815169156495  1.0000
  H   H64       1.0  0.28960286079988007  0.2292558557483321  0.8677815172388489  1.0000
  H   H65       1.0  0.7919628416687174  0.16012285664986786  0.2725289562903621  1.0000
  H   H66       1.0  0.2919628416897362  0.6601228565243343  0.2725289566135615  1.0000
  H   H67       1.0  0.208037158189832  0.16012285664986786  0.22747104350985095  1.0000
  H   H68       1.0  0.7080371581688133  0.6601228565243343  0.22747104318665165  1.0000
  H   H69       1.0  0.2080371580899715  0.8398771430990651  0.7274710432969113  1.0000
  H   H70       1.0  0.7080371580694003  0.3398771432245986  0.7274710436332635  1.0000
  H   H71       1.0  0.7919628415693043  0.8398771430990651  0.7725289567369742  1.0000
  H   H72       1.0  0.2919628415898756  0.3398771432245986  0.7725289564006219  1.0000
  H   H73       1.0  0.7784218695564574  0.3469339764683387  0.25451722550566946  1.0000
  H   H74       1.0  0.2784218695770288  0.8469339763428051  0.2545172251693172  1.0000
  H   H75       1.0  0.22157813030209195  0.3469339764683387  0.24548277429454374  1.0000
  H   H76       1.0  0.7215781302815207  0.8469339763428051  0.245482774630896  1.0000
  H   H77       1.0  0.22157813020267886  0.6530660232805943  0.7454827747411558  1.0000
  H   H78       1.0  0.7215781301816603  0.15306602340612777  0.7454827744179563  1.0000
  H   H79       1.0  0.778421869456597  0.6530660232805943  0.7545172252927297  1.0000
  H   H80       1.0  0.2784218694776157  0.15306602340612777  0.7545172256159292  1.0000
  C   C1        1.0  0.09351223374987759  0.25734427924000947  0.46564452370088927  1.0000
  C   C2        1.0  0.5935122337293063  0.757344279114476  0.46564452403724144  1.0000
  C   C3        1.0  0.9064877661086718  0.25734427924000947  0.034355476099323934  1.0000
  C   C4        1.0  0.40648776612969056  0.757344279114476  0.034355476422523276  1.0000
  C   C5        1.0  0.9064877660088113  0.7426557205089235  0.5343554758863842  1.0000
  C   C6        1.0  0.40648776602983006  0.24265572063445695  0.5343554762095836  1.0000
  C   C7        1.0  0.09351223365001707  0.7426557205089235  0.9656445234879495  1.0000
  C   C8        1.0  0.5935122336294457  0.24265572063445695  0.9656445238243018  1.0000
  C   C9        1.0  0.10719061678698914  0.9549307977106604  0.46516114708167555  1.0000
  C   C10       1.0  0.6071906167659704  0.4549307978361937  0.46516114675847603  1.0000
  C   C11       1.0  0.8928093830720077  0.9549307977106604  0.03483885337808929  1.0000
  C   C12       1.0  0.392809383092579  0.4549307978361937  0.034838853041737027  1.0000
  C   C13       1.0  0.8928093829721472  0.04506920203827273  0.5348388531651497  1.0000
  C   C14       1.0  0.3928093829927185  0.5450692019127391  0.5348388528287974  1.0000
  C   C15       1.0  0.10719061668712862  0.04506920203827273  0.9651611468687358  1.0000
  C   C16       1.0  0.6071906166661099  0.5450692019127391  0.9651611465455364  1.0000
  C   C17       1.0  0.0520288743145581  0.9418130864863368  0.3545282439406875  1.0000
  C   C18       1.0  0.5520288742939867  0.4418130866118703  0.35452824427703966  1.0000
  C   C19       1.0  0.9479711255439913  0.9418130864863368  0.14547175585952565  1.0000
  C   C20       1.0  0.4479711255645627  0.4418130866118703  0.14547175552317343  1.0000
  C   C21       1.0  0.9479711261186846  0.05818691326259621  0.6454717559885916  1.0000
  C   C22       1.0  0.44797112613970325  0.5581869131370627  0.6454717563117909  1.0000
  C   C23       1.0  0.052028874215145  0.05818691326259621  0.8545282443872994  1.0000
  C   C24       1.0  0.5520288741941262  0.5581869131370627  0.8545282440640999  1.0000
  C   C25       1.0  0.9574053461649599  0.9369469188220401  0.3100563971769206  1.0000
  C   C26       1.0  0.45740534618597867  0.43694691894757365  0.31005639750011993  1.0000
  C   C27       1.0  0.04259465369358956  0.9369469188220401  0.18994360262329257  1.0000
  C   C28       1.0  0.5425946536725708  0.43694691894757365  0.18994360230009322  1.0000
  C   C29       1.0  0.04259465359372903  0.06305308092689288  0.6899436024103529  1.0000
  C   C30       1.0  0.5425946535731577  0.5630530808013593  0.6899436027467052  1.0000
  C   C31       1.0  0.9574053460655468  0.06305308092689288  0.8100563976235325  1.0000
  C   C32       1.0  0.4574053460861181  0.5630530808013593  0.8100563972871802  1.0000
  C   C33       1.0  0.09384900086128743  0.9373293492066701  0.29293961616748093  1.0000
  C   C34       1.0  0.5938490008402687  0.43732934827804615  0.29293961584428163  1.0000
  C   C35       1.0  0.906150998997262  0.9373293492066701  0.20706038363273213  1.0000
  C   C36       1.0  0.4061509990182807  0.43732934827804615  0.20706038395593154  1.0000
  C   C37       1.0  0.906150998897849  0.06267065159642032  0.707060384079344  1.0000
  C   C38       1.0  0.4061509989184202  0.5626706514708868  0.7070603837429917  1.0000
  C   C39       1.0  0.09384900076142692  0.06267065159642032  0.7929396159545413  1.0000
  C   C40       1.0  0.5938490007404083  0.5626706514708868  0.792939615631342  1.0000
  C   C41       1.0  0.04622259452418185  0.27688331753940787  0.35504022402824686  1.0000
  C   C42       1.0  0.5462225945036105  0.7768833174138744  0.35504022436459914  1.0000
  C   C43       1.0  0.9537774053343676  0.27688331753940787  0.1449597757719663  1.0000
  C   C44       1.0  0.45377740535538635  0.7768833174138744  0.1449597760951657  1.0000
  C   C45       1.0  0.9537774052345072  0.7231166822095251  0.6449597755590266  1.0000
  C   C46       1.0  0.45377740525552585  0.2231166823350586  0.6449597758822259  1.0000
  C   C47       1.0  0.04622259442432133  0.7231166822095251  0.8550402238153072  1.0000
  C   C48       1.0  0.5462225944037501  0.2231166823350586  0.8550402241516594  1.0000
  C   C49       1.0  0.9502127656682078  0.28163169681812034  0.3030568166969554  1.0000
  C   C50       1.0  0.45021276568877916  0.7816316966925868  0.30305681636060317  1.0000
  C   C51       1.0  0.04978723419034162  0.28163169681812034  0.19694318310325776  1.0000
  C   C52       1.0  0.5497872341697704  0.7816316966925868  0.19694318343961004  1.0000
  C   C53       1.0  0.04978723409092852  0.7183683029308126  0.6969431835498697  1.0000
  C   C54       1.0  0.5497872340699098  0.21836830305634614  0.6969431832266704  1.0000
  C   C55       1.0  0.9502127655683473  0.7183683029308126  0.8030568164840156  1.0000
  C   C56       1.0  0.45021276558936607  0.21836830305634614  0.8030568168072151  1.0000
  C   C57       1.0  0.09422914323221405  0.28024924950186525  0.30071320527940626  1.0000
  C   C58       1.0  0.5942291432111954  0.7802492493763317  0.3007132049562069  1.0000
  C   C59       1.0  0.9057708573013366  0.28024924950186525  0.19928679552236409  1.0000
  C   C60       1.0  0.4057708573219078  0.7802492493763317  0.19928679518601183  1.0000
  C   C61       1.0  0.905770857201476  0.719750751301225  0.6992867953094244  1.0000
  C   C62       1.0  0.4057708572220473  0.21975075142675862  0.6992867949730721  1.0000
  C   C63       1.0  0.09422914313235355  0.719750751301225  0.8007132050664666  1.0000
  C   C64       1.0  0.5942291431113349  0.21975075142675862  0.8007132047432672  1.0000
  C   C65       1.0  0.8105655550582771  0.26299615785281266  0.30952571557532677  1.0000
  C   C66       1.0  0.3105655550788483  0.7629961577272791  0.3095257152389746  1.0000
  C   C67       1.0  0.18943444480071986  0.26299615785281266  0.19047428488443796  1.0000
  C   C68       1.0  0.6894344447797011  0.7629961577272791  0.19047428456123863  1.0000
  C   C69       1.0  0.18943444470085935  0.7370038429502778  0.6904742846714983  1.0000
  C   C70       1.0  0.6894344446798406  0.23700384307581124  0.6904742843482988  1.0000
  C   C71       1.0  0.8105655549584165  0.7370038429502778  0.8095257153623872  1.0000
  C   C72       1.0  0.3105655549789878  0.23700384307581124  0.8095257150260348  1.0000
  C   C73       1.0  0.004596005417353696  0.5914836584858233  0.29826018998904946  1.0000
  C   C74       1.0  0.5045960053967824  0.09148365861135677  0.2982601903254017  1.0000
  C   C75       1.0  0.9954039944411958  0.5914836584858233  0.20173980981116368  1.0000
  C   C76       1.0  0.495403994461767  0.09148365861135677  0.2017398094748115  1.0000
  C   C77       1.0  0.9954039943413352  0.4085163412631097  0.701739809598224  1.0000
  C   C78       1.0  0.49540399436235394  0.9085163411375761  0.7017398099214234  1.0000
  C   C79       1.0  0.004596005992494288  0.4085163412631097  0.7982601907776669  1.0000
  C   C80       1.0  0.5045960059714756  0.9085163411375761  0.7982601904544676  1.0000
  C   C81       1.0  0.9283227389934957  0.5947519290899654  0.3154280229166063  1.0000
  C   C82       1.0  0.4283227390145143  0.09475192921549895  0.3154280232398057  1.0000
  C   C83       1.0  0.07167726153960757  0.5947519290899654  0.1845719772256124  1.0000
  C   C84       1.0  0.5716772615190363  0.09475192921549895  0.18457197756196464  1.0000
  C   C85       1.0  0.07167726143974706  0.40524807171312494  0.6845719770126727  1.0000
  C   C86       1.0  0.5716772614191759  0.9052480715875914  0.684571977349025  1.0000
  C   C87       1.0  0.928322738893635  0.40524807171312494  0.8154280227036667  1.0000
  C   C88       1.0  0.4283227389146538  0.9052480715875914  0.815428023026866  1.0000
  C   C89       1.0  0.0904747427814664  0.599197496384277  0.38263208461170073  1.0000
  C   C90       1.0  0.5904747427608952  0.09919749650981059  0.38263208494805306  1.0000
  C   C91       1.0  0.909525257077083  0.599197496384277  0.11736791518851233  1.0000
  C   C92       1.0  0.4095252570981018  0.09919749650981059  0.11736791551171179  1.0000
  C   C93       1.0  0.9095252569772225  0.40080250336465584  0.6173679149755726  1.0000
  C   C94       1.0  0.40952525699824127  0.9008025032391224  0.6173679152987721  1.0000
  C   C95       1.0  0.09047474268160588  0.40080250336465584  0.8826320843987611  1.0000
  C   C96       1.0  0.5904747426610346  0.9008025032391224  0.8826320847351133  1.0000
  N   N1        1.0  0.8659629583015672  0.5962993446604714  0.33097194170418726  1.0000
  N   N2        1.0  0.36596295832213865  0.09629934478600491  0.33097194136783503  1.0000
  N   N3        1.0  0.13403704155742951  0.5962993446604714  0.16902805875557753  1.0000
  N   N4        1.0  0.6340370415364109  0.09629934478600491  0.16902805843237814  1.0000
  N   N5        1.0  0.13403704145756898  0.40370065508846154  0.6690280585426378  1.0000
  N   N6        1.0  0.6340370414365502  0.903700654962928  0.6690280582194384  1.0000
  N   N7        1.0  0.8659629582017068  0.40370065508846154  0.8309719414912476  1.0000
  N   N8        1.0  0.36596295822227815  0.903700654962928  0.8309719411548954  1.0000
  N   N9        1.0  0.16053870619595448  0.607795468745354  0.45328847415603885  1.0000
  N   N10       1.0  0.6605387061749358  0.10779546887088744  0.4532884738328395  1.0000
  N   N11       1.0  0.8394612943375961  0.607795468745354  0.04671152664573147  1.0000
  N   N12       1.0  0.33946129435816735  0.10779546887088744  0.04671152630937919  1.0000
  N   N13       1.0  0.8394612942377355  0.39220453100357905  0.5467115264327918  1.0000
  N   N14       1.0  0.3394612942583069  0.8922045308780455  0.5467115260964395  1.0000
  N   N15       1.0  0.16053870609609394  0.39220453100357905  0.9532884739430992  1.0000
  N   N16       1.0  0.6605387060750753  0.8922045308780455  0.9532884736198998  1.0000
  O   O1        1.0  0.9070629080149386  0.27865028985104995  0.35974825971300345  1.0000
  O   O2        1.0  0.4070629080359573  0.7786502897255164  0.35974826003620286  1.0000
  O   O3        1.0  0.0929370918436109  0.27865028985104995  0.14025174008720973  1.0000
  O   O4        1.0  0.5929370918230397  0.7786502897255164  0.14025174042356198  1.0000
  O   O5        1.0  0.0929370917437504  0.721349709897883  0.64025173987427  1.0000
  O   O6        1.0  0.5929370917231791  0.22134971002341652  0.6402517402106223  1.0000
  O   O7        1.0  0.9070629079150779  0.721349709897883  0.8597482595000638  1.0000
  O   O8        1.0  0.40706290793609673  0.22134971002341652  0.8597482598232631  1.0000
  S   S1        1.0  0.175578551679469  0.11451686290448933  0.5087624936014997  1.0000
  S   S2        1.0  0.6755785516584503  0.6145168627789558  0.5087624932783003  1.0000
  S   S3        1.0  0.8244214486543606  0.11451686290448933  0.9912375067743913  1.0000
  S   S4        1.0  0.32442144867493183  0.6145168627789558  0.991237506438039  1.0000
  S   S5        1.0  0.8244214487542211  0.8854831368444436  0.49123750698733093  1.0000
  S   S6        1.0  0.32442144877479234  0.38548313696997716  0.4912375066509787  1.0000
  S   S7        1.0  0.1755785511047758  0.8854831368444436  0.008762493472433837  1.0000
  S   S8        1.0  0.6755785510837571  0.38548313696997716  0.00876249314923444  1.0000
