data_image0
_chemical_formula_structural       H16C6N12O12
_chemical_formula_sum              "H16 C6 N12 O12"
_cell_length_a       3.657597570481096
_cell_length_b       9.804914151045713
_cell_length_c       11.821168285653036
_cell_angle_alpha    94.93072864046528
_cell_angle_beta     91.23822504438978
_cell_angle_gamma    98.06869902670802

_space_group_name_H-M_alt    "P 1"
_space_group_IT_number       1

loop_
  _space_group_symop_operation_xyz
  'x, y, z'

loop_
  _atom_site_type_symbol
  _atom_site_label
  _atom_site_symmetry_multiplicity
  _atom_site_fract_x
  _atom_site_fract_y
  _atom_site_fract_z
  _atom_site_occupancy
  H   H1        1.0  0.7441308934951003  0.6422033354862834  0.30289667879380683  1.0000
  H   H2        1.0  0.25586910659386575  0.3577966651355007  0.6971033216377406  1.0000
  H   H3        1.0  0.6151738243174308  0.46743727152877035  0.2962737721450401  1.0000
  H   H4        1.0  0.3848261753635399  0.5325627280526265  0.7037262273686993  1.0000
  H   H5        1.0  0.38652741711432703  0.5632551363107766  0.2139429575683256  1.0000
  H   H6        1.0  0.6134725825666436  0.4367448632706202  0.7860570419454138  1.0000
  H   H7        1.0  0.7589573536944509  0.9873464740386109  0.41463629421769715  1.0000
  H   H8        1.0  0.24104264598651962  0.012653525542785838  0.5853637052960422  1.0000
  H   H9        1.0  0.8603338994765923  0.7623330474429726  0.8750867774154638  1.0000
  H   H10       1.0  0.13966610061237364  0.23766695317881148  0.12491322301608354  1.0000
  H   H11       1.0  0.8026807253016881  0.6102091608719263  0.07006608719094355  1.0000
  H   H12       1.0  0.19731927437928268  0.38979083870947046  0.929933912322796  1.0000
  H   H13       1.0  0.11214317971160628  0.6318804709886021  0.9010712944656806  1.0000
  H   H14       1.0  0.8878568199856639  0.3681195285989189  0.09892870589451874  1.0000
  H   H15       1.0  0.16556685295646983  0.78603401335853  0.9899431938641965  1.0000
  H   H16       1.0  0.8344331467245009  0.2139659862228668  0.010056805649542895  1.0000
  C   C1        1.0  0.689498584800198  0.21132225262845436  0.4077508118732039  1.0000
  C   C2        1.0  0.31050141528876807  0.7886777479933297  0.5922491885583435  1.0000
  C   C3        1.0  0.504022118067049  0.06633175615205428  0.26409550077305205  1.0000
  C   C4        1.0  0.49597788161392165  0.9336682434293424  0.7359044987406874  1.0000
  C   C5        1.0  0.6706863383227483  0.07099250648957917  0.37187028469465117  1.0000
  C   C6        1.0  0.32931366174991816  0.9290074941260809  0.6281297148904363  1.0000
  N   N1        1.0  0.6492254949415495  0.5545482676167913  0.24938645748287386  1.0000
  N   N2        1.0  0.3507745051474166  0.44545173300499263  0.7506135429486737  1.0000
  N   N3        1.0  0.824385661210058  0.27939578671409915  0.5149334947434362  1.0000
  N   N4        1.0  0.1756143388789081  0.7206042139076849  0.4850665056881112  1.0000
  N   N5        1.0  0.4360050045523235  0.19359003649183243  0.23825717292921486  1.0000
  N   N6        1.0  0.5639949982716702  0.8064099641309769  0.761742827516368  1.0000
  N   N7        1.0  0.39822925293279254  0.9471035867646447  0.18607729768255604  1.0000
  N   N8        1.0  0.6017707471561736  0.05289641385713943  0.8139227027489914  1.0000
  N   N9        1.0  0.5483156728800548  0.28326830200451353  0.32740298314204475  1.0000
  N   N10       1.0  0.4516843272089114  0.7167316986172706  0.6725970172895026  1.0000
  N   N11       1.0  0.9854040095853477  0.7142380503222815  0.9390259883498452  1.0000
  N   N12       1.0  0.014595990095622985  0.28576194925911524  0.06097401116389424  1.0000
  O   O1        1.0  0.9100625245833409  0.5358053779677963  0.16461927773536128  1.0000
  O   O2        1.0  0.0899374751139293  0.4641946216197247  0.8353807226248381  1.0000
  O   O3        1.0  0.008971424869601376  0.21458712092477555  0.5772272067539274  1.0000
  O   O4        1.0  0.9910285752030651  0.7854128796908841  0.42277279283116015  1.0000
  O   O5        1.0  0.23189963684256223  0.9631923522361713  0.09559090128210469  1.0000
  O   O6        1.0  0.7681003628547081  0.03680764735134978  0.9044090990780946  1.0000
  O   O7        1.0  0.4740892133624749  0.8344730857551239  0.21272714491666916  1.0000
  O   O8        1.0  0.5259107867264912  0.1655269148666602  0.7872728555148782  1.0000
  O   O9        1.0  0.7516728394975324  0.39710436223309953  0.5425501309399798  1.0000
  O   O10       1.0  0.24832716059143362  0.6028956383886844  0.4574498694915676  1.0000
  O   O11       1.0  0.6889261310875038  0.6585108929036234  0.0034947936656815866  1.0000
  O   O12       1.0  0.3110738685934669  0.3414891066777733  0.9965052058480578  1.0000
