data_image0
_chemical_formula_structural       H40C36N6O10F6S4
_chemical_formula_sum              "H40 C36 N6 O10 F6 S4"
_cell_length_a       8.107496168732894
_cell_length_b       9.395080261667081
_cell_length_c       14.04075283904261
_cell_angle_alpha    99.51308342366153
_cell_angle_beta     100.81004371335726
_cell_angle_gamma    100.04422505341678

_space_group_name_H-M_alt    "P 1"
_space_group_IT_number       1

loop_
  _space_group_symop_operation_xyz
  'x, y, z'

loop_
  _atom_site_type_symbol
  _atom_site_label
  _atom_site_symmetry_multiplicity
  _atom_site_fract_x
  _atom_site_fract_y
  _atom_site_fract_z
  _atom_site_occupancy
  H   H1        1.0  0.9005393897712484  0.5563375504758983  0.1372257753887677  1.0000
  H   H2        1.0  0.0994606098368433  0.4436624503820535  0.8627742242310144  1.0000
  H   H3        1.0  0.9128487336961607  0.6129160501217837  0.9719853791073623  1.0000
  H   H4        1.0  0.08715126689778735  0.3870839496292167  0.028014621205447992  1.0000
  H   H5        1.0  0.07180179167021036  0.8575948356376443  0.9582591131857467  1.0000
  H   H6        1.0  0.9281982091992254  0.14240516521769125  0.041740887278978185  1.0000
  H   H7        1.0  0.21822703484818923  0.046447873140114955  0.11159498768767141  1.0000
  H   H8        1.0  0.7817729644844148  0.9535521266135015  0.8884050117801958  1.0000
  H   H9        1.0  0.20985877130132688  0.988114543946366  0.27632079823157885  1.0000
  H   H10       1.0  0.790141229568109  0.01188545690896953  0.7236792022331463  1.0000
  H   H11       1.0  0.996850861731851  0.6136754916910272  0.31034581501464764  1.0000
  H   H12       1.0  0.0031491376070669447  0.3863245080626493  0.6896541851661137  1.0000
  H   H13       1.0  0.18194581521212683  0.7559758287754011  0.3630566982525566  1.0000
  H   H14       1.0  0.818054185650995  0.2440241720798745  0.6369433014992745  1.0000
  H   H15       1.0  0.9958213731167294  0.9389711368612347  0.38577309739329724  1.0000
  H   H16       1.0  0.0041786274709046875  0.061028862889706034  0.614226902206619  1.0000
  H   H17       1.0  0.3111610408855719  0.8650175205079152  0.7108206247244091  1.0000
  H   H18       1.0  0.6888389599838638  0.1349824803474203  0.28917937574031594  1.0000
  H   H19       1.0  0.37980620362929857  0.7693839601582874  0.8041852970555797  1.0000
  H   H20       1.0  0.6201937969646495  0.23061603959271304  0.19581470325723052  1.0000
  H   H21       1.0  0.059582314953320704  0.7413296578479913  0.5014779788214663  1.0000
  H   H22       1.0  0.9404176843855974  0.2586703419056851  0.49852202135929496  1.0000
  H   H23       1.0  0.7150652539382999  0.6765373969029793  0.30027759462980325  1.0000
  H   H24       1.0  0.28493474540061803  0.32346260285069695  0.699722405550958  1.0000
  H   H25       1.0  0.39803899045619684  0.779017432544485  0.4919486493014037  1.0000
  H   H26       1.0  0.6019610088827211  0.2209825672091915  0.5080513508793576  1.0000
  H   H27       1.0  0.9650141711729094  0.6879494039358466  0.6398625098472217  1.0000
  H   H28       1.0  0.034985829421038624  0.3120505958151539  0.3601374904655885  1.0000
  H   H29       1.0  0.5676567128783185  0.9316985345165767  0.1512086552781499  1.0000
  H   H30       1.0  0.432343286736087  0.0683014663414346  0.8487913450545262  1.0000
  H   H31       1.0  0.6336215557286416  0.9784580756058677  0.04272191294678595  1.0000
  H   H32       1.0  0.3663784448653065  0.02154192414513266  0.9572780873660244  1.0000
  H   H33       1.0  0.7350238234550821  0.8591380268488498  0.11101652068057224  1.0000
  H   H34       1.0  0.26497617587752187  0.1408619729047667  0.888983478787295  1.0000
  H   H35       1.0  0.5386429605994263  0.6046001674882787  0.11769859487216235  1.0000
  H   H36       1.0  0.4613570387394917  0.39539983226539765  0.8823014053085989  1.0000
  H   H37       1.0  0.36089294865414223  0.6826696965009387  0.13298892983194105  1.0000
  H   H38       1.0  0.6391070506784619  0.31733030325267786  0.8670110696359262  1.0000
  H   H39       1.0  0.3415225740920273  0.5428101105857243  0.025232056813635006  1.0000
  H   H40       1.0  0.6584774265019208  0.45718988916527625  0.9747679434991752  1.0000
  C   C1        1.0  0.05316453788331344  0.7686337618356639  0.21802902883360722  1.0000
  C   C2        1.0  0.9468354627043206  0.23136623791527666  0.7819709707663091  1.0000
  C   C3        1.0  0.9697471611792516  0.6642247335365652  0.1315185418897863  1.0000
  C   C4        1.0  0.030252839683869985  0.33577526731871044  0.8684814578620447  1.0000
  C   C5        1.0  0.9766786662253821  0.6959925799692916  0.03847712322864297  1.0000
  C   C6        1.0  0.023321334368565986  0.3040074197817088  0.9615228770841673  1.0000
  C   C7        1.0  0.06603822281415243  0.8332364787917699  0.030890236245909104  1.0000
  C   C8        1.0  0.9339617765247656  0.16676352096190655  0.9691097639348522  1.0000
  C   C9        1.0  0.1481213671937478  0.9388912638747614  0.1167597777332409  1.0000
  C   C10       1.0  0.8518786336756881  0.06110873698057429  0.8832402227314841  1.0000
  C   C11       1.0  0.1417294433791977  0.9065268582289967  0.20958519826784522  1.0000
  C   C12       1.0  0.8582705559534063  0.09347314152461988  0.7904148012000222  1.0000
  C   C13       1.0  0.050075487861633926  0.7320197245882495  0.31806581134754175  1.0000
  C   C14       1.0  0.9499245114772841  0.26798027516542694  0.6819341888332195  1.0000
  C   C15       1.0  0.9447005025322271  0.8195565747013872  0.3756923888434474  1.0000
  C   C16       1.0  0.055299498061720874  0.1804434250496133  0.6243076114693629  1.0000
  C   C17       1.0  0.8227244281377439  0.7637366508991471  0.519440734080711  1.0000
  C   C18       1.0  0.17727557273169178  0.23626334995618836  0.480559266384014  1.0000
  C   C19       1.0  0.6619130328663927  0.7993381733798842  0.48422783626194854  1.0000
  C   C20       1.0  0.3380869664725252  0.2006618263737922  0.5157721639188128  1.0000
  C   C21       1.0  0.5224474550813336  0.760977009345111  0.5258069527189513  1.0000
  C   C22       1.0  0.47755254452675794  0.23902299151284068  0.47419304690083086  1.0000
  C   C23       1.0  0.538574967527153  0.6972353879123698  0.6091110853532646  1.0000
  C   C24       1.0  0.4614250320809387  0.3027646129455817  0.39088891426651745  1.0000
  C   C25       1.0  0.7039132269147964  0.6774167909024909  0.6526483822217951  1.0000
  C   C26       1.0  0.29608677269960926  0.32258320995552064  0.34735161811088094  1.0000
  C   C27       1.0  0.8404159980195574  0.7081102567564332  0.607834929042258  1.0000
  C   C28       1.0  0.15958400257439068  0.2918897429945672  0.39216507127055217  1.0000
  C   C29       1.0  0.7426384212332487  0.6207208943560821  0.7473883320830418  1.0000
  C   C30       1.0  0.2573615793543853  0.37927910539485854  0.2526116675168746  1.0000
  C   C31       1.0  0.4840805358318758  0.7572903693242967  0.023543379475740787  1.0000
  C   C32       1.0  0.5159194647620723  0.24270963042670368  0.9764566208370694  1.0000
  C   C33       1.0  0.6129125642544999  0.8913604116253924  0.08477538039262537  1.0000
  C   C34       1.0  0.38708743508441806  0.10863958812828389  0.9152246197881359  1.0000
  C   C35       1.0  0.4272846814142306  0.6383689851434334  0.07701543353311262  1.0000
  C   C36       1.0  0.5727153194552052  0.3616310157119021  0.9229845669316123  1.0000
  N   N1        1.0  0.31672353540674897  0.7667821762374459  0.7327027469631906  1.0000
  N   N2        1.0  0.683276463925855  0.23321782351617057  0.2672972525046767  1.0000
  N   N3        1.0  0.9532765445416603  0.7780728720027897  0.47230574332905007  1.0000
  N   N4        1.0  0.046723456052287816  0.22192712774821066  0.5276942569837602  1.0000
  N   N5        1.0  0.767019303627749  0.7888493130184797  0.31826386840831183  1.0000
  N   N6        1.0  0.23298069696619908  0.21115068673252063  0.6817361319044983  1.0000
  O   O1        1.0  0.4675789976520516  0.8289093130046699  0.31920382168442163  1.0000
  O   O2        1.0  0.5324210016805523  0.17109068674894676  0.6807961777834456  1.0000
  O   O3        1.0  0.7230899235434547  0.028476077185029623  0.402397259692425  1.0000
  O   O4        1.0  0.2769100770441793  0.9715239225659108  0.5976027399074911  1.0000
  O   O5        1.0  0.20838347837786184  0.6271222089785264  0.5603345227462461  1.0000
  O   O6        1.0  0.7916165222160862  0.37287779077247407  0.4396654775665642  1.0000
  O   O7        1.0  0.3568507865641929  0.5131054649639121  0.6907492916203232  1.0000
  O   O8        1.0  0.6431492140297551  0.4868945347870884  0.30925070869248716  1.0000
  O   O9        1.0  0.4261537089751997  0.7451982820530486  0.9341121181536399  1.0000
  O   O10       1.0  0.573846291894236  0.2548017188022868  0.06588788231108506  1.0000
  F   F1        1.0  0.6649923179543509  0.6810741565103325  0.8177458482142504  1.0000
  F   F2        1.0  0.3350076826332832  0.3189258432406081  0.1822541513856659  1.0000
  F   F3        1.0  0.6937863863884449  0.4713774846236516  0.7329141217686558  1.0000
  F   F4        1.0  0.306213612950473  0.5286225151300248  0.2670858784121055  1.0000
  F   F5        1.0  0.9151639194444016  0.6551479226413712  0.7893535752845972  1.0000
  F   F6        1.0  0.08483608114323264  0.3448520771095694  0.21064642431531902  1.0000
  S   S1        1.0  0.3438632138711964  0.6409529811711464  0.6471780258305344  1.0000
  S   S2        1.0  0.6561367869982393  0.3590470196841892  0.3528219746341906  1.0000
  S   S3        1.0  0.6414109151063971  0.872520925703309  0.3767944986587634  1.0000
  S   S4        1.0  0.35858908422620683  0.1274790740503076  0.6232055008091039  1.0000
