data_image0
_chemical_formula_structural       H16C28N4O8Cl4
_chemical_formula_sum              "H16 C28 N4 O8 Cl4"
_cell_length_a       3.7644035029541048
_cell_length_b       7.818539370965168
_cell_length_c       22.135432940304188
_cell_angle_alpha    93.47308361339684
_cell_angle_beta     94.53441564437506
_cell_angle_gamma    92.51874798134801

_space_group_name_H-M_alt    "P 1"
_space_group_IT_number       1

loop_
  _space_group_symop_operation_xyz
  'x, y, z'

loop_
  _atom_site_type_symbol
  _atom_site_label
  _atom_site_symmetry_multiplicity
  _atom_site_fract_x
  _atom_site_fract_y
  _atom_site_fract_z
  _atom_site_occupancy
  H   H1        1.0  0.42907253980702925  0.5624014690724642  0.18637488321399495  1.0000
  H   H2        1.0  0.5709274605440785  0.4375985307861413  0.813625117086561  1.0000
  H   H3        1.0  0.28643746460320946  0.5698235638463099  0.2967325760224068  1.0000
  H   H4        1.0  0.7135625357478983  0.4301764360122954  0.7032674242781493  1.0000
  H   H5        1.0  0.6011065470092685  0.04657355538561059  0.36473250420618714  1.0000
  H   H6        1.0  0.39889345312727903  0.9534264443902075  0.6352674956402464  1.0000
  H   H7        1.0  0.8570678846963499  0.7896378404183095  0.31811887595243993  1.0000
  H   H8        1.0  0.14293211544019763  0.2103621593575087  0.6818811238939936  1.0000
  H   H9        1.0  0.974628051494651  0.7774296290121283  0.20709472249040559  1.0000
  H   H10       1.0  0.02537194885645674  0.22257037084647718  0.7929052778101504  1.0000
  H   H11       1.0  0.8570578624754174  0.022759693293689705  0.14577366166380568  1.0000
  H   H12       1.0  0.14294213777254175  0.9772403077623559  0.854226338182529  1.0000
  H   H13       1.0  0.6680559433992918  0.31557486593686174  0.11635655569206799  1.0000
  H   H14       1.0  0.33194405695181617  0.6844251339217438  0.8836434446084882  1.0000
  H   H15       1.0  0.3340722045521214  0.3236765579055025  0.3779834424416425  1.0000
  H   H16       1.0  0.6659277930388076  0.6763234431478151  0.6220165574039903  1.0000
  C   C1        1.0  0.03634760967475637  0.4476712217993394  0.937218619459487  1.0000
  C   C2        1.0  0.9636523905732027  0.5523287792567064  0.06278138038684773  1.0000
  C   C3        1.0  0.8647489014616617  0.3308087264845662  0.9752855433757848  1.0000
  C   C4        1.0  0.13525109867488563  0.6691912732912519  0.024714456470648793  1.0000
  C   C5        1.0  0.826897074280036  0.37718463547760794  0.03524339120549051  1.0000
  C   C6        1.0  0.17310292585651155  0.6228153642982103  0.964756608640943  1.0000
  C   C7        1.0  0.9816754674978556  0.4558758090453689  0.5620649032601233  1.0000
  C   C8        1.0  0.018324532638691944  0.5441241907304494  0.43793509658631025  1.0000
  C   C9        1.0  0.13806174828525722  0.3400100471294249  0.5195136326761873  1.0000
  C   C10       1.0  0.8619382491942602  0.6599899526436652  0.48048636716954424  1.0000
  C   C11       1.0  0.16394663761038022  0.38010932600614655  0.46041062670830785  1.0000
  C   C12       1.0  0.8360533626375788  0.6198906750498991  0.5395893731380268  1.0000
  C   C13       1.0  0.47392857936085253  0.4529051430603747  0.21365782731830904  1.0000
  C   C14       1.0  0.526071420775695  0.5470948567154436  0.7863421725281246  1.0000
  C   C15       1.0  0.3939485545795922  0.4571463981970154  0.27494394954336315  1.0000
  C   C16       1.0  0.6060514457715155  0.5428536016615901  0.7250560507571928  1.0000
  C   C17       1.0  0.5844010171848071  0.18248337121333455  0.28256607716327176  1.0000
  C   C18       1.0  0.4155989829517404  0.8175166285624836  0.7174339226831618  1.0000
  C   C19       1.0  0.6563107801141977  0.04019754219645203  0.3171872129860968  1.0000
  C   C20       1.0  0.34368922023691006  0.9598024576621534  0.6828127873144593  1.0000
  C   C21       1.0  0.7977937365066694  0.8973849268930967  0.29048424022179775  1.0000
  C   C22       1.0  0.20220626362987804  0.10261507288272143  0.7095157596246358  1.0000
  C   C23       1.0  0.8673745290398459  0.8910384873524205  0.22842721348613884  1.0000
  C   C24       1.0  0.1326254710967015  0.10896151242339767  0.7715727863602946  1.0000
  C   C25       1.0  0.8020120860299769  0.028114356613255485  0.1934394294574815  1.0000
  C   C26       1.0  0.1979879141065706  0.9718856431625627  0.806560570388952  1.0000
  C   C27       1.0  0.6616167439252272  0.17709806287227103  0.21995663796740184  1.0000
  C   C28       1.0  0.3383832563227321  0.8229019381837748  0.7800433618789329  1.0000
  N   N1        1.0  0.6005966418512945  0.3156322101123466  0.18667611337359674  1.0000
  N   N2        1.0  0.39940335828525303  0.6843677896634716  0.8133238864728368  1.0000
  N   N3        1.0  0.44364284169047036  0.3244258118507984  0.3084404545406154  1.0000
  N   N4        1.0  0.5563571584460771  0.67557418792502  0.6915595453058181  1.0000
  O   O1        1.0  0.077111888519552  0.4132234003004791  0.8827868285924524  1.0000
  O   O2        1.0  0.9228881118315558  0.5867765995581264  0.11721317170810364  1.0000
  O   O3        1.0  0.6702385847283462  0.2731990727037538  0.0704413040533561  1.0000
  O   O4        1.0  0.3297614129657317  0.7268009271521235  0.9295586962464982  1.0000
  O   O5        1.0  0.9634820093824061  0.4297971060509327  0.6164600461281362  1.0000
  O   O6        1.0  0.03651799075414144  0.5702028937248855  0.3835399537182974  1.0000
  O   O7        1.0  0.3153696828056825  0.2794221062528084  0.4214438633932533  1.0000
  O   O8        1.0  0.6846303174422765  0.7205778948032372  0.5785561364530815  1.0000
  Cl  Cl1       1.0  0.7147840683474287  0.13254333782959501  0.9443020953438416  1.0000
  Cl  Cl2       1.0  0.285215932003679  0.8674566620290105  0.05569790495671452  1.0000
  Cl  Cl3       1.0  0.2951053766747186  0.15355436226544328  0.5449499383869314  1.0000
  Cl  Cl4       1.0  0.7048946236763892  0.8464456375931622  0.4550500619136246  1.0000
