data_image0
_chemical_formula_structural       H34C52N10O26S2
_chemical_formula_sum              "H34 C52 N10 O26 S2"
_cell_length_a       7.9191500044082135
_cell_length_b       12.436784139849554
_cell_length_c       14.641471778807572
_cell_angle_alpha    66.17161544239764
_cell_angle_beta     74.95974521458203
_cell_angle_gamma    82.05235849860846

_space_group_name_H-M_alt    "P 1"
_space_group_IT_number       1

loop_
  _space_group_symop_operation_xyz
  'x, y, z'

loop_
  _atom_site_type_symbol
  _atom_site_label
  _atom_site_symmetry_multiplicity
  _atom_site_fract_x
  _atom_site_fract_y
  _atom_site_fract_z
  _atom_site_occupancy
  H   H1        1.0  0.872506377377593  0.5684136851462844  0.3111392767974295  1.0000
  H   H2        1.0  0.12749362349404975  0.4315863151601064  0.6888607230709262  1.0000
  H   H3        1.0  0.5104829939406568  0.3874565570254413  0.2684555863996439  1.0000
  H   H4        1.0  0.4895170056716628  0.6125434424021627  0.7315444139462498  1.0000
  H   H5        1.0  0.7517086529340116  0.3178675054377546  0.15100692538504043  1.0000
  H   H6        1.0  0.24829134667830804  0.6821324939898495  0.8489930749608533  1.0000
  H   H7        1.0  0.06444610635852457  0.32752395509549675  0.05687340303017285  1.0000
  H   H8        1.0  0.9355538932069287  0.6724760452117856  0.9431265963374775  1.0000
  H   H9        1.0  0.36460870378120724  0.39138540655064236  0.026532340370131028  1.0000
  H   H10       1.0  0.6353912957828362  0.6086145937565833  0.9734676596807277  1.0000
  H   H11       1.0  0.4191258623819588  0.5151659478100036  0.11343747190551495  1.0000
  H   H12       1.0  0.5808741371820846  0.48483405249722217  0.8865625281453438  1.0000
  H   H13       1.0  0.17624937228047716  0.5724225724305694  0.2339064409161119  1.0000
  H   H14       1.0  0.8237506272849762  0.427577427876713  0.7660935584515385  1.0000
  H   H15       1.0  0.2860879496755022  0.5525738653761239  0.4114098657580366  1.0000
  H   H16       1.0  0.7139120498885412  0.447426134931102  0.588590134292822  1.0000
  H   H17       1.0  0.7325870249075581  0.7231665301576391  0.38788811391669054  1.0000
  H   H18       1.0  0.2674129746564853  0.27683347014958665  0.612111886134168  1.0000
  H   H19       1.0  0.036522106412406594  0.6981735411390867  0.5885520623645051  1.0000
  H   H20       1.0  0.9634778945075123  0.30182645828768245  0.41144793779888544  1.0000
  H   H21       1.0  0.7934016796404013  0.8011450308830489  0.6774894309037724  1.0000
  H   H22       1.0  0.20659831992364194  0.1988549694241768  0.32251056914708626  1.0000
  H   H23       1.0  0.48723321625423693  0.8901369386448125  0.6923277096592876  1.0000
  H   H24       1.0  0.5127667846174058  0.10986306166157836  0.30767229020906783  1.0000
  H   H25       1.0  0.21231229075675867  0.9389967430243011  0.6310038570769971  1.0000
  H   H26       1.0  0.787687710114884  0.061003257282089725  0.36899614279135845  1.0000
  H   H27       1.0  0.18886939863960137  0.8971348462702066  0.48143043629096927  1.0000
  H   H28       1.0  0.8111306022334513  0.10286515403624093  0.5185695628941779  1.0000
  H   H29       1.0  0.4367433799694126  0.799325935164056  0.3966745231614917  1.0000
  H   H30       1.0  0.5632566196429072  0.2006740642635481  0.6033254771844021  1.0000
  H   H31       1.0  0.7302567453733598  0.8249692075997913  0.9108705069563634  1.0000
  H   H32       1.0  0.26974325419068346  0.17503079270743463  0.08912949309449522  1.0000
  H   H33       1.0  0.897498702968564  0.1767682766752459  0.8140629908364654  1.0000
  H   H34       1.0  0.10250129664375567  0.8232317227523582  0.1859370095094284  1.0000
  C   C1        1.0  0.682709313095062  0.48485308855640186  0.29374704720978395  1.0000
  C   C2        1.0  0.3172906865172576  0.5151469108712022  0.7062529531361097  1.0000
  C   C3        1.0  0.6451140871236388  0.41188161932799927  0.25020076577606776  1.0000
  C   C4        1.0  0.3548859124418144  0.5881183809792832  0.7497992335915825  1.0000
  C   C5        1.0  0.7776236468531846  0.375023511786509  0.1857173950121841  1.0000
  C   C6        1.0  0.22237635275913506  0.6249764876410951  0.8142826053337097  1.0000
  C   C7        1.0  0.09077076540152645  0.3800178712805801  0.09547580103530942  1.0000
  C   C8        1.0  0.9092292341639269  0.6199821290267022  0.904524198332341  1.0000
  C   C9        1.0  0.25669180720294643  0.4166857029304752  0.0783251455787101  1.0000
  C   C10       1.0  0.7433081923610969  0.5833142973767506  0.9216748544721485  1.0000
  C   C11       1.0  0.2876713585646278  0.4863040072271988  0.12804148357640557  1.0000
  C   C12       1.0  0.7123286423552913  0.5136959921995703  0.8719585165869849  1.0000
  C   C13       1.0  0.1542717610972482  0.519726487820033  0.19433776324715218  1.0000
  C   C14       1.0  0.8457282385150714  0.48027351160757126  0.8056622370987415  1.0000
  C   C15       1.0  0.9838236627986061  0.48326364423534834  0.21188896518406256  1.0000
  C   C16       1.0  0.016176336765437217  0.5167363560718775  0.7881110348667961  1.0000
  C   C17       1.0  0.9499817266304239  0.41157226318606893  0.16343868559195468  1.0000
  C   C18       1.0  0.05001827293361946  0.5884277371211568  0.836561314458904  1.0000
  C   C19       1.0  0.5443411313439698  0.5367432080253816  0.35849151763961995  1.0000
  C   C20       1.0  0.4556588682683499  0.46325679140222253  0.6415084827062738  1.0000
  C   C21       1.0  0.8903582291884735  0.7045822611115701  0.482796575760885  1.0000
  C   C22       1.0  0.1096417716831693  0.2954177391948207  0.5172034241074706  1.0000
  C   C23       1.0  0.9121471248100143  0.725421841470977  0.5661191530272147  1.0000
  C   C24       1.0  0.08785287475543913  0.2745781588363053  0.43388084634043556  1.0000
  C   C25       1.0  0.7782148623431573  0.7812440848476087  0.6141214921712855  1.0000
  C   C26       1.0  0.22178513722088603  0.21875591545961715  0.3858785078795731  1.0000
  C   C27       1.0  0.47524150849090196  0.8697294631664941  0.6285715906090056  1.0000
  C   C28       1.0  0.5247584910745514  0.1302705371407882  0.3714284087586446  1.0000
  C   C29       1.0  0.32298384800406493  0.8978792309500383  0.5933073964472383  1.0000
  C   C30       1.0  0.6770161516082547  0.10212076847756593  0.40669260389865536  1.0000
  C   C31       1.0  0.30905697854508435  0.8728659245207364  0.509455851987758  1.0000
  C   C32       1.0  0.6909430223279682  0.12713407578571104  0.4905441471973891  1.0000
  C   C33       1.0  0.4459143786190908  0.8191032430557696  0.46105464987394323  1.0000
  C   C34       1.0  0.5540856209932287  0.18089675637183447  0.5389453504719505  1.0000
  C   C35       1.0  0.6019310844345016  0.7903558132271293  0.49654754569866083  1.0000
  C   C36       1.0  0.3980689151309518  0.20964418708015298  0.5034524536689896  1.0000
  C   C37       1.0  0.619079912921422  0.8146829583377507  0.581099340728318  1.0000
  C   C38       1.0  0.38092008795022064  0.18531704196864013  0.4189006591400375  1.0000
  C   C39       1.0  0.028466650945353677  0.6448058734688374  0.424517724019615  1.0000
  C   C40       1.0  0.9715333486186897  0.3551941268383884  0.5754822760312437  1.0000
  C   C41       1.0  0.7116517013929364  0.9851553288491316  0.05741318340456077  1.0000
  C   C42       1.0  0.2883482995269825  0.014844670577637673  0.9425868167588298  1.0000
  C   C43       1.0  0.6942501976998868  0.8919251124572238  0.03009237029163209  1.0000
  C   C44       1.0  0.30574980322003215  0.10807488696954529  0.9699076298717584  1.0000
  C   C45       1.0  0.7470837479551918  0.8978654306149145  0.930119562562085  1.0000
  C   C46       1.0  0.25291625296472714  0.10213456881185462  0.06988043760130577  1.0000
  C   C47       1.0  0.8205193422370298  0.00022974870482359667  0.8543254473331515  1.0000
  C   C48       1.0  0.179480658634613  0.9997702516015672  0.14567455253520398  1.0000
  C   C49       1.0  0.8392682129178534  0.09706338005215284  0.8749365184745888  1.0000
  C   C50       1.0  0.16073178669446617  0.9029366193754514  0.12506348187130498  1.0000
  C   C51       1.0  0.7809417938807992  0.08731148270745828  0.9760795672064956  1.0000
  C   C52       1.0  0.2190582057315203  0.912688516720146  0.02392043313939818  1.0000
  N   N1        1.0  0.8466493638126364  0.5158485286596982  0.2756950229593022  1.0000
  N   N2        1.0  0.15335063575140695  0.48415147164752764  0.7243049770915565  1.0000
  N   N3        1.0  0.7419661614413855  0.7384215214717234  0.4507866579699048  1.0000
  N   N4        1.0  0.2580338394316672  0.26157847883472396  0.5492133412152423  1.0000
  N   N5        1.0  0.6162833214298262  0.779813148398408  0.10612069128519135  1.0000
  N   N6        1.0  0.3837166781342171  0.22018685190881787  0.8938793087656672  1.0000
  N   N7        1.0  0.8784558130319472  0.005056198935405846  0.749206778708941  1.0000
  N   N8        1.0  0.12154418783969546  0.994943801370985  0.2507932211594145  1.0000
  N   N9        1.0  0.7869878170682769  0.19604515068074477  0.9936200573109927  1.0000
  N   N10       1.0  0.21301218254404272  0.8039548487468593  0.0063799430349011105  1.0000
  O   O1        1.0  0.586511461061535  0.6019641309408126  0.3929242330286617  1.0000
  O   O2        1.0  0.4134885385507847  0.3980358684867916  0.6070757673172321  1.0000
  O   O3        1.0  0.38680945257843663  0.5067482860479922  0.36906083849951726  1.0000
  O   O4        1.0  0.613190547033883  0.4932517133796119  0.6309391618463764  1.0000
  O   O5        1.0  0.0007314501551133956  0.6397789167507252  0.34583352011816837  1.0000
  O   O6        1.0  0.9992685494089301  0.3602210835565006  0.6541664799326903  1.0000
  O   O7        1.0  0.1623166385643558  0.6048031725068264  0.4632091150578763  1.0000
  O   O8        1.0  0.8376833610493738  0.39519682692083435  0.536790884604809  1.0000
  O   O9        1.0  0.7950852327886613  0.055080240337984115  0.18454112765111907  1.0000
  O   O10       1.0  0.20491476813125775  0.944919759088785  0.8154588725122714  1.0000
  O   O11       1.0  0.49442130119851424  0.9949866879645226  0.22390697010714716  1.0000
  O   O12       1.0  0.5055786996731284  0.005013312341868121  0.7760930297612084  1.0000
  O   O13       1.0  0.7401459885286348  0.8471776513189672  0.2391117194131144  1.0000
  O   O14       1.0  0.25985401103540856  0.1528223489882586  0.7608882806377444  1.0000
  O   O15       1.0  0.4820219328029142  0.7834167946050218  0.17028206864688  1.0000
  O   O16       1.0  0.5179780681170048  0.21658320482174737  0.8297179315165106  1.0000
  O   O17       1.0  0.6884201091916188  0.6885188162156067  0.09664647951479827  1.0000
  O   O18       1.0  0.31157989168002376  0.31148118409078407  0.9033535203535572  1.0000
  O   O19       1.0  0.8935483756770284  0.9109162478112973  0.7370197894420453  1.0000
  O   O20       1.0  0.10645162388701498  0.08908375249592831  0.2629802106088134  1.0000
  O   O21       1.0  0.9098565742789058  0.10234540652110119  0.6791068653850613  1.0000
  O   O22       1.0  0.09014342659414687  0.8976545937853462  0.32089313380008594  1.0000
  O   O23       1.0  0.9307524153325392  0.2393709723675496  0.9702771059691737  1.0000
  O   O24       1.0  0.06924758423150412  0.7606290279396763  0.029722894081684992  1.0000
  O   O25       1.0  0.6445105689439703  0.2396584761065869  0.024525544962096402  1.0000
  O   O26       1.0  0.3554894306200729  0.7603415242006388  0.9754744550887623  1.0000
  S   S1        1.0  0.6798627614687394  0.968995930525211  0.19064670940189488  1.0000
  S   S2        1.0  0.3201372380953039  0.031004069782014646  0.809353290648964  1.0000
