data_image0
_chemical_formula_structural       H30B2C34N8O4F4S2
_chemical_formula_sum              "H30 B2 C34 N8 O4 F4 S2"
_cell_length_a       6.750859355552529
_cell_length_b       11.5954227792938
_cell_length_c       12.102532727104329
_cell_angle_alpha    63.15556482489228
_cell_angle_beta     86.26308717941727
_cell_angle_gamma    85.15357545939308

_space_group_name_H-M_alt    "P 1"
_space_group_IT_number       1

loop_
  _space_group_symop_operation_xyz
  'x, y, z'

loop_
  _atom_site_type_symbol
  _atom_site_label
  _atom_site_symmetry_multiplicity
  _atom_site_fract_x
  _atom_site_fract_y
  _atom_site_fract_z
  _atom_site_occupancy
  H   H1        1.0  0.35252453154645047  0.7113540783811564  0.6669711595821649  1.0000
  H   H2        1.0  0.6474754681976673  0.2886459223186944  0.3330288405992581  1.0000
  H   H3        1.0  0.36005495669592325  0.8794288984551165  0.6255844223508268  1.0000
  H   H4        1.0  0.6399450431928159  0.12057110182195646  0.37441557689831806  1.0000
  H   H5        1.0  0.5049122503332419  0.812256835192061  0.5342721609573824  1.0000
  H   H6        1.0  0.49508774952281237  0.1877431646450739  0.46572783921821337  1.0000
  H   H7        1.0  0.37391101631478707  0.9923407617035984  0.33902471158671016  1.0000
  H   H8        1.0  0.626088983573952  0.007659238573474414  0.6609752876624347  1.0000
  H   H9        1.0  0.21318476567187147  0.06519820801255925  0.4180573924067998  1.0000
  H   H10       1.0  0.7868152342168678  0.9348017922645137  0.5819426068423451  1.0000
  H   H11       1.0  0.11325467342029784  0.031005209044728803  0.3032409449090744  1.0000
  H   H12       1.0  0.8867453264357563  0.9689947907924061  0.6967590552665213  1.0000
  H   H13       1.0  0.19773633269763458  0.7674711686300986  0.298297190819857  1.0000
  H   H14       1.0  0.8022636671584198  0.23252883120703616  0.7017028093557387  1.0000
  H   H15       1.0  0.20377192306720596  0.5393937401810599  0.9926236390201523  1.0000
  H   H16       1.0  0.7962280767888484  0.46060625965607505  0.007376361155443453  1.0000
  H   H17       1.0  0.16900713210643328  0.3237925549326382  0.17630773011774917  1.0000
  H   H18       1.0  0.8309928692323377  0.6762074448998613  0.8236922700504594  1.0000
  H   H19       1.0  0.14432778050450615  0.3032901902543589  0.3888154438001311  1.0000
  H   H20       1.0  0.8556722193515482  0.6967098095827761  0.6111845563754646  1.0000
  H   H21       1.0  0.1479669229931507  0.49847180549694514  0.42668599608682567  1.0000
  H   H22       1.0  0.8520330783456203  0.5015281943355545  0.573314004081383  1.0000
  H   H23       1.0  0.2805400387523616  0.23451796761759927  0.013464458117857334  1.0000
  H   H24       1.0  0.7194599611363776  0.7654820326594735  0.9865355411312875  1.0000
  H   H25       1.0  0.3238180447522225  0.46353707107118985  0.8548405641960072  1.0000
  H   H26       1.0  0.6761819565865484  0.5364629287613097  0.14515943597220146  1.0000
  H   H27       1.0  0.34740645952572446  0.5216386420142123  0.6313452846850482  1.0000
  H   H28       1.0  0.6525935403303298  0.4783613578229225  0.3686547154905475  1.0000
  H   H29       1.0  0.3340089499918293  0.35105904291518975  0.5592317564086183  1.0000
  H   H30       1.0  0.665991049864225  0.6489409569219451  0.4407682437669773  1.0000
  B   B1        1.0  0.25087847305205085  0.8344115753349842  0.886800922959485  1.0000
  B   B2        1.0  0.7491215268040035  0.16558842450215058  0.11319907721611086  1.0000
  C   C1        1.0  0.36788284610210814  0.8077343240112036  0.5895605971035008  1.0000
  C   C2        1.0  0.6321171537539462  0.19226567582593135  0.41043940307209487  1.0000
  C   C3        1.0  0.22318642095129104  0.9989639916474767  0.3754847794895906  1.0000
  C   C4        1.0  0.7768135789047632  0.0010360081896581461  0.6245152206860052  1.0000
  C   C5        1.0  0.20160883214964292  0.6373690907469279  0.1088814523989615  1.0000
  C   C6        1.0  0.7983911677064113  0.3626309090902069  0.8911185477766342  1.0000
  C   C7        1.0  0.1950303152099184  0.5297410817794971  0.08651580782554258  1.0000
  C   C8        1.0  0.8049696846461358  0.4702589180576378  0.9134841923500531  1.0000
  C   C9        1.0  0.17543431149500296  0.4101502542754968  0.1896076692175202  1.0000
  C   C10       1.0  0.8245656883610514  0.5898497455616383  0.8103923309580755  1.0000
  C   C11       1.0  0.16074911821487817  0.3984572390439247  0.3109510534534594  1.0000
  C   C12       1.0  0.8392508816411761  0.6015427607932102  0.6890489467221363  1.0000
  C   C13       1.0  0.1643812336837202  0.5056119990800549  0.333861463234329  1.0000
  C   C14       1.0  0.835618766172334  0.49438800075707995  0.6661385369412668  1.0000
  C   C15       1.0  0.18713710822379673  0.6247310199341812  0.23101202581733601  1.0000
  C   C16       1.0  0.8128628915530061  0.37526898120560737  0.7689879734376361  1.0000
  C   C17       1.0  0.22318494351245874  0.8312141121014115  0.10065196824511234  1.0000
  C   C18       1.0  0.7768150563762802  0.16878588817566148  0.8993480310040325  1.0000
  C   C19       1.0  0.25737100304211047  0.02789017253734638  0.9389073043327512  1.0000
  C   C20       1.0  0.7426289968139438  0.9721098272997887  0.06109269584284448  1.0000
  C   C21       1.0  0.27942256601059057  0.16794100650539098  0.8727372547540218  1.0000
  C   C22       1.0  0.7205774338454637  0.8320589933317439  0.12726274542157393  1.0000
  C   C23       1.0  0.28966948010091004  0.26057551155851966  0.9149501193339219  1.0000
  C   C24       1.0  0.7103305197551442  0.7394244882786154  0.08504988084167375  1.0000
  C   C25       1.0  0.31456792167243997  0.38830792640038075  0.8253696253467427  1.0000
  C   C26       1.0  0.6854320781836143  0.611692073436754  0.17463037482885305  1.0000
  C   C27       1.0  0.32924525980587777  0.4213807237942002  0.6987358347153009  1.0000
  C   C28       1.0  0.670754741420957  0.578619276901015  0.3012641654587351  1.0000
  C   C29       1.0  0.319630191895392  0.3271997103840091  0.6572033200818573  1.0000
  C   C30       1.0  0.6803698079606623  0.6728002894531258  0.3427966800937383  1.0000
  C   C31       1.0  0.2927198609826635  0.2012201102106297  0.745777418197249  1.0000
  C   C32       1.0  0.7072801388733908  0.7987798896265053  0.2542225819783467  1.0000
  C   C33       1.0  0.273997972026365  0.08183554980044043  0.73228763943686  1.0000
  C   C34       1.0  0.7260020278296893  0.9181644500366946  0.26771236073873567  1.0000
  N   N1        1.0  0.22263050535497378  0.7674078910475737  0.02981988465683006  1.0000
  N   N2        1.0  0.7773694959837972  0.23259210878492592  0.9701801155113786  1.0000
  N   N3        1.0  0.20137427955595336  0.746913579539285  0.22155015020782204  1.0000
  N   N4        1.0  0.7986257201881644  0.2530864211605656  0.7784498499736009  1.0000
  N   N5        1.0  0.2420786827932083  0.9597046508287231  0.05945111429826652  1.0000
  N   N6        1.0  0.7579213170628459  0.04029534900841182  0.9405488858773291  1.0000
  N   N7        1.0  0.2554761587350694  0.980201513510745  0.8528518679570259  1.0000
  N   N8        1.0  0.7445238410090486  0.019798487189105336  0.1471481322243971  1.0000
  O   O1        1.0  0.18319096452822148  0.7488859284994568  0.43705245231630485  1.0000
  O   O2        1.0  0.8168090353278328  0.2511140713376781  0.5629475478592909  1.0000
  O   O3        1.0  0.27408902198094554  0.06922826658112508  0.6364915158800428  1.0000
  O   O4        1.0  0.7259109778751088  0.9307717332560098  0.363508484295553  1.0000
  F   F1        1.0  0.43223118283815115  0.7882330993050546  0.8519869602902709  1.0000
  F   F2        1.0  0.567768817050588  0.21176690097201836  0.148013038958874  1.0000
  F   F3        1.0  0.09184298302382982  0.8099189019418613  0.8323010356775388  1.0000
  F   F4        1.0  0.9081570168322245  0.19008109789527355  0.1676989644980569  1.0000
  S   S1        1.0  0.1580373826904272  0.8431589171847341  0.49380619901861866  1.0000
  S   S2        1.0  0.8419626186483438  0.15684108264776533  0.50619380114959  1.0000
