data_image0
_chemical_formula_structural       H32C8N16S8Br4I12
_chemical_formula_sum              "H32 C8 N16 S8 Br4 I12"
_cell_length_a       9.857446103293222
_cell_length_b       11.837382279279202
_cell_length_c       12.714877488140178
_cell_angle_alpha    90.0
_cell_angle_beta     109.2636889386425
_cell_angle_gamma    90.0

_space_group_name_H-M_alt    "P 1"
_space_group_IT_number       1

loop_
  _space_group_symop_operation_xyz
  'x, y, z'

loop_
  _atom_site_type_symbol
  _atom_site_label
  _atom_site_symmetry_multiplicity
  _atom_site_fract_x
  _atom_site_fract_y
  _atom_site_fract_z
  _atom_site_occupancy
  H   H1        1.0  0.0382674644892813  0.9189043712004159  0.7935294479610189  1.0000
  H   H2        1.0  0.9617325347536417  0.41890437116997  0.7064705520596748  1.0000
  H   H3        1.0  0.9617325356103511  0.08109562886047586  0.20647055232853892  1.0000
  H   H4        1.0  0.03826746534599044  0.5810956288909217  0.29352944822988286  1.0000
  H   H5        1.0  0.9238700110868369  0.037578950269998954  0.7668263577078206  1.0000
  H   H6        1.0  0.07612998916778385  0.5375789503004448  0.7331736423064488  1.0000
  H   H7        1.0  0.07612998901279552  0.9624210497908927  0.2331736425817372  1.0000
  H   H8        1.0  0.9238700109318486  0.4624210497604469  0.266826357983109  1.0000
  H   H9        1.0  0.24131730888325714  0.731372263372335  0.6285754169182056  1.0000
  H   H10       1.0  0.7586826903596661  0.23137226334188918  0.8714245831024883  1.0000
  H   H11       1.0  0.7586826912163752  0.26862773668855666  0.37142458337135215  1.0000
  H   H12       1.0  0.24131730937761642  0.7686277367190025  0.12857541635396758  1.0000
  H   H13       1.0  0.2636594795412467  0.7564325016075458  0.49745854588776334  1.0000
  H   H14       1.0  0.736340521052745  0.2564325015771  0.0025414538375564126  1.0000
  H   H15       1.0  0.7363405205583857  0.2435674984533458  0.5025414544017945  1.0000
  H   H16       1.0  0.26365947868453754  0.7435674984837917  0.9974585456188995  1.0000
  H   H17       1.0  0.4118797498796111  0.8000055372526705  0.7895909986712342  1.0000
  H   H18       1.0  0.5881202503750096  0.3000055372222247  0.7104090013430352  1.0000
  H   H19       1.0  0.5881202502200212  0.19999446280822109  0.21040900161832357  1.0000
  H   H20       1.0  0.4118797493622729  0.699994462838667  0.28959099811342054  1.0000
  H   H21       1.0  0.5759684799561999  0.853634998143804  0.7842077189916579  1.0000
  H   H22       1.0  0.4240315202984207  0.3536349981133582  0.7157922810226116  1.0000
  H   H23       1.0  0.4240315201434324  0.14636500191708768  0.21579228129789998  1.0000
  H   H24       1.0  0.5759684794388618  0.6463650019475335  0.2842077184338441  1.0000
  H   H25       1.0  0.9438239061978265  0.7448274172435421  0.7136841452748343  1.0000
  H   H26       1.0  0.05617609304509667  0.24482741721309612  0.7863158547458595  1.0000
  H   H27       1.0  0.05617609353945593  0.2551725828173497  0.28631585418162153  1.0000
  H   H28       1.0  0.9438239070545357  0.7551725828477955  0.2136841455436982  1.0000
  H   H29       1.0  0.7614818078452281  0.7356781765208207  0.6299965393848105  1.0000
  H   H30       1.0  0.2385181913976952  0.2356781764903749  0.8700034606358834  1.0000
  H   H31       1.0  0.23851819225440438  0.26432182354007094  0.37000346090474734  1.0000
  H   H32       1.0  0.7614818083395872  0.7643218227257353  0.12999653882057235  1.0000
  C   C1        1.0  0.4309246640203818  0.8024197036051439  0.6359856866382237  1.0000
  C   C2        1.0  0.5690753362342389  0.3024197035746981  0.8640143133760457  1.0000
  C   C3        1.0  0.5690753357169006  0.19758029645574776  0.36401431281823204  1.0000
  C   C4        1.0  0.4309246638653935  0.6975802964861936  0.13598568691351207  1.0000
  C   C5        1.0  0.8300596248331934  0.889901628710553  0.6987241416498419  1.0000
  C   C6        1.0  0.16994037542142726  0.3899016286801072  0.8012758583644276  1.0000
  C   C7        1.0  0.16994037526643893  0.11009837135033869  0.301275858639716  1.0000
  C   C8        1.0  0.8300596243158552  0.6100983713807845  0.19872414109202813  1.0000
  N   N1        1.0  0.9373088371745338  0.9523039548813506  0.7618938007959148  1.0000
  N   N2        1.0  0.06269116308008689  0.45230395485090474  0.7381061992183546  1.0000
  N   N3        1.0  0.06269116292509853  0.047696045179541104  0.23810619949364295  1.0000
  N   N4        1.0  0.9373088366571957  0.5476960452099869  0.26189380023810116  1.0000
  N   N5        1.0  0.3046729990478199  0.7570919387884896  0.5830951633791708  1.0000
  N   N6        1.0  0.6953270012068008  0.25709193875804365  0.9169048366350986  1.0000
  N   N7        1.0  0.6953270010518124  0.2429080612724022  0.41690483691038704  1.0000
  N   N8        1.0  0.30467299889283156  0.7429080613028479  0.08309516365445911  1.0000
  N   N9        1.0  0.47993318766997517  0.8152393276081326  0.7449537062335223  1.0000
  N   N10       1.0  0.5200668125846455  0.3152393275776867  0.7550462937807472  1.0000
  N   N11       1.0  0.5200668134413547  0.18476067245275912  0.25504629404961116  1.0000
  N   N12       1.0  0.4799331875149868  0.684760672483205  0.2449537065088106  1.0000
  N   N13       1.0  0.8443369814803762  0.7822533598673175  0.6804955709441081  1.0000
  N   N14       1.0  0.1556630187742446  0.2822533598368716  0.8195044290701616  1.0000
  N   N15       1.0  0.15566301861925624  0.21774664019357423  0.31950442934544987  1.0000
  N   N16       1.0  0.8443369809630378  0.7177466402240201  0.1804955703862943  1.0000
  S   S1        1.0  0.5335744194880967  0.8396111611092778  0.5489821023637296  1.0000
  S   S2        1.0  0.46642557975482657  0.339611161078832  0.9510178976569644  1.0000
  S   S3        1.0  0.46642558061153566  0.16038883895161388  0.4510178979258283  1.0000
  S   S4        1.0  0.5335744203448058  0.6603888389820597  0.04898210263259346  1.0000
  S   S5        1.0  0.6647864819715547  0.962941789077212  0.6403903563421793  1.0000
  S   S6        1.0  0.33521351727136856  0.46294178904676614  0.8596096436785146  1.0000
  S   S7        1.0  0.3352135177657278  0.0370582109836797  0.35960964311427646  1.0000
  S   S8        1.0  0.6647864828282639  0.5370582101693442  0.14039035661104327  1.0000
  Br  Br1       1.0  0.1862007519597906  0.7763399443546217  0.30078718273217814  1.0000
  Br  Br2       1.0  0.8137992476225036  0.2763399443241758  0.19921281699956592  1.0000
  Br  Br3       1.0  0.8137992477774918  0.22366005570627004  0.6992128167242776  1.0000
  Br  Br4       1.0  0.18620075247712886  0.7236600557367159  0.8007871832899919  1.0000
  I   I1        1.0  0.5000000000498162  0.5000000000304459  0.5000000001447789  1.0000
  I   I2        1.0  0.499999999532478  0.0  0.9999999995869652  1.0000
  I   I3        1.0  0.21597177260129075  0.4510496319229386  0.5172393502086094  1.0000
  I   I4        1.0  0.7840282276533299  0.9510496319533845  0.9827606498056599  1.0000
  I   I5        1.0  0.7840282274983417  0.5489503681379531  0.48276065008094843  1.0000
  I   I6        1.0  0.21597177208395246  0.04895036810750723  0.017239349650795707  1.0000
  I   I7        1.0  1.549882873126694e-10  0.0  0.4999999997247116  1.0000
  I   I8        1.0  0.0  0.5000000000304459  0.0  1.0000
  I   I9        1.0  0.7220903562963663  0.9142023637221721  0.3533126988337857  1.0000
  I   I10       1.0  0.27790964364827775  0.4142023636917263  0.14668730173106045  1.0000
  I   I11       1.0  0.2779096438032661  0.08579763633871954  0.6466873014557721  1.0000
  I   I12       1.0  0.7220903564513547  0.5857976363691654  0.8533126985584975  1.0000
