data_image0
_chemical_formula_structural       H136C48N16O4P4Cl4
_chemical_formula_sum              "H136 C48 N16 O4 P4 Cl4"
_cell_length_a       11.409509434856183
_cell_length_b       18.191241104411713
_cell_length_c       9.319133525490951
_cell_angle_alpha    90.0
_cell_angle_beta     102.64497469691963
_cell_angle_gamma    90.0

_space_group_name_H-M_alt    "P 1"
_space_group_IT_number       1

loop_
  _space_group_symop_operation_xyz
  'x, y, z'

loop_
  _atom_site_type_symbol
  _atom_site_label
  _atom_site_symmetry_multiplicity
  _atom_site_fract_x
  _atom_site_fract_y
  _atom_site_fract_z
  _atom_site_occupancy
  H   H1        1.0  0.3335755860376308  0.19871828256530072  0.8349587573041938  1.0000
  H   H2        1.0  0.6664244135832739  0.6987182829937565  0.665041242643812  1.0000
  H   H3        1.0  0.6664244140876334  0.8012817171921807  0.16504124298029493  1.0000
  H   H4        1.0  0.3335755863415244  0.30128171731344  0.33495875654095214  1.0000
  H   H5        1.0  0.2923478233778497  0.2913411256318672  0.8502739670489462  1.0000
  H   H6        1.0  0.707652176243055  0.791341126060323  0.6497260328990596  1.0000
  H   H7        1.0  0.7076521767474144  0.7086588741256142  0.14972603323554246  1.0000
  H   H8        1.0  0.2923478230066156  0.2086588742468735  0.3502739673902382  1.0000
  H   H9        1.0  0.3948957619064492  0.49368121770548246  0.09010226742043877  1.0000
  H   H10       1.0  0.6051042376471151  0.9936812175842232  0.4098977321056174  1.0000
  H   H11       1.0  0.6051042382188149  0.5063187820519991  0.9098977328640497  1.0000
  H   H12       1.0  0.39489576227768336  0.0063187821732582795  0.5901022670791467  1.0000
  H   H13       1.0  0.39083718600919554  0.42092602676477064  0.21375350539281365  1.0000
  H   H14       1.0  0.6091628135443685  0.9209260266435114  0.2862464941332426  1.0000
  H   H15       1.0  0.6091628139156028  0.579073973542426  0.7862464937919506  1.0000
  H   H16       1.0  0.3908371857053019  0.07907397311397013  0.7137535061560553  1.0000
  H   H17       1.0  0.7120704089738161  0.37210214251727947  0.06806438972316876  1.0000
  H   H18       1.0  0.28792959057974793  0.8721021429457353  0.4319356098028874  1.0000
  H   H19       1.0  0.2879295911514479  0.627897857240202  0.9319356105613198  1.0000
  H   H20       1.0  0.7120704093450504  0.12789785736146123  0.5680643893818768  1.0000
  H   H21       1.0  0.6599607505387235  0.380477285209608  0.875327391228768  1.0000
  H   H22       1.0  0.3400392490821812  0.8804772850883487  0.6246726087192378  1.0000
  H   H23       1.0  0.34003924958654064  0.6195227150975886  0.12467260905572064  1.0000
  H   H24       1.0  0.6599607510430829  0.11952271466913272  0.3753273915652508  1.0000
  H   H25       1.0  0.19321843569175473  0.1619389992739732  0.9981115375350036  1.0000
  H   H26       1.0  0.80678156392915  0.6619389991527139  0.5018884624130022  1.0000
  H   H27       1.0  0.8067815644335095  0.8380610010332233  0.0018884627494850045  1.0000
  H   H28       1.0  0.19321843599564834  0.3380610011544826  0.49811153677176195  1.0000
  H   H29       1.0  0.14954660773339887  0.25444135578399196  0.005033921717550656  1.0000
  H   H30       1.0  0.8504533920206312  0.7544413556627326  0.49496607890823  1.0000
  H   H31       1.0  0.8504533923918652  0.7455586445232045  0.994966078566938  1.0000
  H   H32       1.0  0.14954660810463302  0.24555864409474873  0.5050339213762587  1.0000
  H   H33       1.0  0.20616404471641311  0.37089443712357373  0.05003132634189298  1.0000
  H   H34       1.0  0.7938359548371511  0.8708944375520296  0.44996867318416317  1.0000
  H   H35       1.0  0.793835955408851  0.6291055626339077  0.9499686739425957  1.0000
  H   H36       1.0  0.20616404508764727  0.129105562755167  0.550031326000601  1.0000
  H   H37       1.0  0.18824726178437381  0.46035905092638385  0.1150993334190693  1.0000
  H   H38       1.0  0.8117527377691903  0.9603590513548398  0.3849006661069869  1.0000
  H   H39       1.0  0.8117527383408902  0.5396409488310976  0.8849006668654193  1.0000
  H   H40       1.0  0.18824726215560794  0.03964094895235683  0.6150993330777773  1.0000
  H   H41       1.0  0.7772146742390635  0.26725956091148323  0.8403830629562622  1.0000
  H   H42       1.0  0.22278532625743466  0.767259560790224  0.6596169369869345  1.0000
  H   H43       1.0  0.22278532588620054  0.7327404393957133  0.1596169373282265  1.0000
  H   H44       1.0  0.7772146738678294  0.2327404395169726  0.34038306329755413  1.0000
  H   H45       1.0  0.8317244142253459  0.26145683918435486  0.03252768957777564  1.0000
  H   H46       1.0  0.16827558640427756  0.7614568390630956  0.46747231104319587  1.0000
  H   H47       1.0  0.16827558589991806  0.7385431611228416  0.967472310706713  1.0000
  H   H48       1.0  0.8317244137209865  0.2385431606943858  0.5325276892412929  1.0000
  H   H49       1.0  0.21386996972824865  0.5123027371529845  0.8703550532229002  1.0000
  H   H50       1.0  0.786130029892656  0.012302737274243693  0.6296449467251057  1.0000
  H   H51       1.0  0.7861300301965496  0.4876972626044971  0.129644945961864  1.0000
  H   H52       1.0  0.21386996935701455  0.9876972630329528  0.3703550535641922  1.0000
  H   H53       1.0  0.08835630575462194  0.4524772632475197  0.8505080627068659  1.0000
  H   H54       1.0  0.9116436947418762  0.9524772631262604  0.6494919372363308  1.0000
  H   H55       1.0  0.9116436941701763  0.5475227365099617  0.14949193647789832  1.0000
  H   H56       1.0  0.08835630538338782  0.047522736631221016  0.35050806304815785  1.0000
  H   H57       1.0  0.2230927211884475  0.42200988134549067  0.8038344059710787  1.0000
  H   H58       1.0  0.7769072793080508  0.9220098812242313  0.6961655939721177  1.0000
  H   H59       1.0  0.7769072789368167  0.5779901184119908  0.19616559431340985  1.0000
  H   H60       1.0  0.22309272061674754  0.07799011853325005  0.3038344052126463  1.0000
  H   H61       1.0  0.8726409125021636  0.3943411281740573  0.8434110980179844  1.0000
  H   H62       1.0  0.1273590879943347  0.8943411280527981  0.6565889019252121  1.0000
  H   H63       1.0  0.12735908762310058  0.6056588715834241  0.15658890226650418  1.0000
  H   H64       1.0  0.8726409121309294  0.10565887170468338  0.34341109835927647  1.0000
  H   H65       1.0  0.9814450109076879  0.32572119054389376  0.9106153100972249  1.0000
  H   H66       1.0  0.018554989588810356  0.8257211904226345  0.5893846898459719  1.0000
  H   H67       1.0  0.01855498921757621  0.6742788097633028  0.0893846901872639  1.0000
  H   H68       1.0  0.9814450105364538  0.17427880988456207  0.41061531043851673  1.0000
  H   H69       1.0  0.9308498352344201  0.38533615764677026  0.035085036055057195  1.0000
  H   H70       1.0  0.06915016451960986  0.885336157525511  0.46491496457072345  1.0000
  H   H71       1.0  0.06915016401525038  0.6146638426604263  0.9649149642342406  1.0000
  H   H72       1.0  0.9308498356056542  0.11466384278168551  0.5350850357137652  1.0000
  H   H73       1.0  0.07324705094669734  0.2541519236353123  0.7262763216544946  1.0000
  H   H74       1.0  0.9267529495498008  0.754151923514053  0.7737236782887019  1.0000
  H   H75       1.0  0.9267529491785668  0.7458480766718842  0.2737236786299939  1.0000
  H   H76       1.0  0.07324705057546324  0.24584807624342844  0.2262763219957867  1.0000
  H   H77       1.0  0.9986326390252823  0.18774269608090308  0.8135450630285052  1.0000
  H   H78       1.0  0.0013673605956222466  0.6877426959596438  0.6864549369195007  1.0000
  H   H79       1.0  0.0013673608995158782  0.8122573036765784  0.1864549361562591  1.0000
  H   H80       1.0  0.9986326395296418  0.31225730379783767  0.3135450633649879  1.0000
  H   H81       1.0  0.11333702968315583  0.16027569824759838  0.7230120521834544  1.0000
  H   H82       1.0  0.8866629708133424  0.660275698126339  0.7769879477597422  1.0000
  H   H83       1.0  0.8866629704421084  0.8397243020595982  0.2769879481010342  1.0000
  H   H84       1.0  0.11333702931192167  0.3397243021808575  0.2230120525247464  1.0000
  H   H85       1.0  0.5655537544653578  0.2561477022516045  0.885008913352795  1.0000
  H   H86       1.0  0.43444624515554686  0.7561477021303452  0.6149910865952108  1.0000
  H   H87       1.0  0.43444624458384695  0.743852298055592  0.1149910858367785  1.0000
  H   H88       1.0  0.5655537549697173  0.24385229762713623  0.3850089136892777  1.0000
  H   H89       1.0  0.40742394065313525  0.198936283633905  0.10585770737000053  1.0000
  H   H90       1.0  0.592576058900429  0.6989362835126457  0.3941422921560557  1.0000
  H   H91       1.0  0.5925760594721289  0.8010637166732916  0.8941422929144881  1.0000
  H   H92       1.0  0.4074239401487757  0.30106371679455085  0.6058577070335177  1.0000
  H   H93       1.0  0.437648201937969  0.4040155543987375  0.9122297636477339  1.0000
  H   H94       1.0  0.5623517985585292  0.9040155542774782  0.5877702362954627  1.0000
  H   H95       1.0  0.5623517979868293  0.5959844459084591  0.0877702355370302  1.0000
  H   H96       1.0  0.4376482015667348  0.09598444548000323  0.41222976398902594  1.0000
  H   H97       1.0  0.5874595989452097  0.46998144386787205  0.393901176420843  1.0000
  H   H98       1.0  0.41254040168441397  0.9699814437466128  0.10609882420012848  1.0000
  H   H99       1.0  0.41254040118005453  0.5300185558896094  0.6060988238636457  1.0000
  H   H100      1.0  0.5874595984408502  0.0300185560108687  0.8939011760843603  1.0000
  H   H101      1.0  0.5329961599705678  0.4128624318094805  0.5068203508517951  1.0000
  H   H102      1.0  0.46700384052593036  0.9128624316882212  0.9931796490914012  1.0000
  H   H103      1.0  0.4670038401546962  0.587137568497716  0.4931796494326933  1.0000
  H   H104      1.0  0.5329961595993338  0.08713756861897531  0.0068203511930872394  1.0000
  H   H105      1.0  0.5768156233252086  0.3769806342865122  0.35491444562884983  1.0000
  H   H106      1.0  0.423184377304415  0.8769806341652528  0.14508555499212156  1.0000
  H   H107      1.0  0.4231843768000555  0.6230193660206843  0.6450855546556388  1.0000
  H   H108      1.0  0.5768156228208491  0.12301936559222856  0.854914445292367  1.0000
  H   H109      1.0  0.7222506024285591  0.35143675152816056  0.5800063189538501  1.0000
  H   H110      1.0  0.2777493971923455  0.8514367514069013  0.9199936809941556  1.0000
  H   H111      1.0  0.2777493974962391  0.6485632482293209  0.41999368023091405  1.0000
  H   H112      1.0  0.7222506029329185  0.14856324835058018  0.08000631929033294  1.0000
  H   H113      1.0  0.7294358957776998  0.44685215666943234  0.6235479000456935  1.0000
  H   H114      1.0  0.2705641038432048  0.9468521565481731  0.8764520999023123  1.0000
  H   H115      1.0  0.2705641043475642  0.5531478430880491  0.37645210023879516  1.0000
  H   H116      1.0  0.7294358962820595  0.053147843209308404  0.12354790038217629  1.0000
  H   H117      1.0  0.8027139568507459  0.4723036097804416  0.39182001091873614  1.0000
  H   H118      1.0  0.19728604290328414  0.9723036096591823  0.1081799897070445  1.0000
  H   H119      1.0  0.19728604327451826  0.527696390526755  0.6081799893657525  1.0000
  H   H120      1.0  0.80271395722198  0.027696390648014196  0.8918200105774441  1.0000
  H   H121      1.0  0.8016892062095908  0.3768578213356433  0.35524038863465723  1.0000
  H   H122      1.0  0.19831079421956688  0.8768578217640991  0.14475961088658976  1.0000
  H   H123      1.0  0.1983107937152074  0.6231421784218382  0.6447596105501069  1.0000
  H   H124      1.0  0.8016892059056974  0.12314217854309742  0.8552403893978988  1.0000
  H   H125      1.0  0.9543165978039068  0.45232818820726073  0.630561546723207  1.0000
  H   H126      1.0  0.045683402692591454  0.9523281886357167  0.8694384532199897  1.0000
  H   H127      1.0  0.04568340232135732  0.5476718115502206  0.3694384535612817  1.0000
  H   H128      1.0  0.9543165972322067  0.04767181167147994  0.13056154596477448  1.0000
  H   H129      1.0  0.009834559724257232  0.42063823001852607  0.4784731347747926  1.0000
  H   H130      1.0  0.9901654400297727  0.9206382304469819  0.02152686585098802  1.0000
  H   H131      1.0  0.990165440401007  0.5793617697389555  0.521526865509696  1.0000
  H   H132      1.0  0.009834560095491331  0.07936176986021468  0.9784731344335005  1.0000
  H   H133      1.0  0.9559340120027991  0.35678119116490536  0.5926513072181816  1.0000
  H   H134      1.0  0.04406598761810552  0.8567811910436461  0.907348692729824  1.0000
  H   H135      1.0  0.04406598812246501  0.6432188085925761  0.4073486930663069  1.0000
  H   H136      1.0  0.9559340125071586  0.14321880871383533  0.09265130755466452  1.0000
  C   C1        1.0  0.30155895905205093  0.23814397132856302  0.9079728643832579  1.0000
  C   C2        1.0  0.6984410414444473  0.7381439712073038  0.5920271355599386  1.0000
  C   C3        1.0  0.6984410408727473  0.7618560284289184  0.09202713480150618  1.0000
  C   C4        1.0  0.3015589586808169  0.26185602855017776  0.40797286472455  1.0000
  C   C5        1.0  0.36790210725071437  0.43592951764444504  0.09671764755722088  1.0000
  C   C6        1.0  0.6320978931784433  0.9359295180729008  0.4032823519640261  1.0000
  C   C7        1.0  0.6320978928745498  0.5640704821130365  0.9032823527272679  1.0000
  C   C8        1.0  0.36790210674635493  0.06407048223429568  0.5967176472207381  1.0000
  C   C9        1.0  0.6896872991731456  0.3403164063665025  0.9651284138593671  1.0000
  C   C10       1.0  0.31031270132335254  0.8403164067949583  0.5348715860838293  1.0000
  C   C11       1.0  0.31031270095211844  0.6596835933909789  0.03487158642512132  1.0000
  C   C12       1.0  0.6896872988019116  0.15968359351223824  0.4651284142006593  1.0000
  C   C13       1.0  0.18016799994450095  0.21348910597738968  0.934468777992672  1.0000
  C   C14       1.0  0.8198320005519972  0.7134891058561303  0.5655312219505245  1.0000
  C   C15       1.0  0.8198319999802973  0.7865108943298068  0.06553122119209213  1.0000
  C   C16       1.0  0.18016799957326685  0.286510893901351  0.434468778333964  1.0000
  C   C17       1.0  0.2319636953507239  0.4286386115848341  0.04048543799284104  1.0000
  C   C18       1.0  0.7680363044033061  0.9286386114635748  0.45951456263293955  1.0000
  C   C19       1.0  0.7680363047745402  0.5713613881726474  0.9595145622916474  1.0000
  C   C20       1.0  0.23196369484636437  0.07136138829390667  0.5404854376563581  1.0000
  C   C21       1.0  0.8014994626692429  0.30043116182296015  0.9415282435075362  1.0000
  C   C22       1.0  0.1985005369516617  0.8004311617017008  0.5584717564404695  1.0000
  C   C23       1.0  0.19850053745602117  0.6995688384842363  0.05847175677695236  1.0000
  C   C24       1.0  0.8014994629731367  0.19956883805578057  0.4415282427442947  1.0000
  C   C25       1.0  0.1867544352011955  0.4550917038855731  0.882851011371237  1.0000
  C   C26       1.0  0.8132455644197093  0.9550917037643137  0.6171489885767687  1.0000
  C   C27       1.0  0.8132455649240685  0.5449082964216235  0.11714898891325157  1.0000
  C   C28       1.0  0.18675443570555497  0.044908295993167695  0.38285101170771985  1.0000
  C   C29       1.0  0.9022337843295103  0.3542007718449385  0.9321788274611019  1.0000
  C   C30       1.0  0.09776621549186025  0.8542007717236793  0.5678211735866282  1.0000
  C   C31       1.0  0.09776621579575388  0.645799227912543  0.06782117282338665  1.0000
  C   C32       1.0  0.9022337846334039  0.14579922803380224  0.43217882669786034  1.0000
  C   C33       1.0  0.08621162270604302  0.2032986913192583  0.7919048079282556  1.0000
  C   C34       1.0  0.9137883769148617  0.703298691197999  0.7080951920197501  1.0000
  C   C35       1.0  0.9137883774192211  0.7967013089879383  0.20809519235623292  1.0000
  C   C36       1.0  0.08621162300993666  0.29670130855948246  0.29190480716501405  1.0000
  C   C37       1.0  0.7184659922072938  0.40696789336735106  0.532891417022921  1.0000
  C   C38       1.0  0.28153400741361095  0.9069678937958069  0.9671085829250848  1.0000
  C   C39       1.0  0.28153400791797034  0.5930321063901304  0.46710858326156757  1.0000
  C   C40       1.0  0.7184659927116533  0.09303210651138964  0.03289141735940381  1.0000
  C   C41       1.0  0.8146481969708409  0.41783407884999313  0.4444732429261886  1.0000
  C   C42       1.0  0.1853518025827232  0.9178340787287339  0.05552675659986759  1.0000
  C   C43       1.0  0.18535180315442318  0.5821659214572034  0.5555267573583  1.0000
  C   C44       1.0  0.814648197542541  0.0821659215784627  0.944473243684621  1.0000
  C   C45       1.0  0.9405269174390849  0.41142392083324736  0.5416387814043832  1.0000
  C   C46       1.0  0.05947308305741336  0.911423920711988  0.9583612185388135  1.0000
  C   C47       1.0  0.05947308268617922  0.5885760789242341  0.45836121888010545  1.0000
  C   C48       1.0  0.9405269170678509  0.08857607904549336  0.04163878174567518  1.0000
  N   N1        1.0  0.5925716790501888  0.2896521259740842  0.9755229379139905  1.0000
  N   N2        1.0  0.4074283205707159  0.789652125852825  0.5244770620340151  1.0000
  N   N3        1.0  0.40742831999901596  0.7103478737833973  0.02447706127558278  1.0000
  N   N4        1.0  0.5925716795545483  0.21034787390465653  0.47552293825047337  1.0000
  N   N5        1.0  0.4404496871526768  0.3907918794103575  0.019988374850698747  1.0000
  N   N6        1.0  0.5595503124008874  0.8907918798388134  0.48001162467535746  1.0000
  N   N7        1.0  0.5595503120969938  0.609208120347124  0.9800116254385991  1.0000
  N   N8        1.0  0.4404496875239109  0.10920812046838328  0.5199883745094067  1.0000
  N   N9        1.0  0.3889331305994861  0.2469726625145124  0.047123575400084945  1.0000
  N   N10       1.0  0.6110668700301376  0.7469726623932531  0.4528764252208865  1.0000
  N   N11       1.0  0.611066869525778  0.7530273377926842  0.9528764248844036  1.0000
  N   N12       1.0  0.38893313009512664  0.25302733736422833  0.5471235750636021  1.0000
  N   N13       1.0  0.5959891322739311  0.4171110066899078  0.4404509525295506  1.0000
  N   N14       1.0  0.4040108681552267  0.9171110071183637  0.059549046991696476  1.0000
  N   N15       1.0  0.40401086785133306  0.5828889930675737  0.5595490477549381  1.0000
  N   N16       1.0  0.5959891317695716  0.08288899318883293  0.9404509521930677  1.0000
  O   O1        1.0  0.552514946809229  0.3113089254051278  0.23920369719903736  1.0000
  O   O2        1.0  0.44748505274433525  0.8113089252838686  0.26079630232701884  1.0000
  O   O3        1.0  0.4474850533160352  0.6886910749020688  0.7607963030854513  1.0000
  O   O4        1.0  0.5525149473809289  0.18869107447361297  0.7392036979574698  1.0000
  P   P1        1.0  0.49537669225542513  0.3095908925441142  0.0763523226678545  1.0000
  P   P2        1.0  0.5046233081737326  0.8095908924228549  0.4236476768533925  1.0000
  P   P3        1.0  0.504623307669373  0.6904091072133672  0.9236476765169097  1.0000
  P   P4        1.0  0.49537669195153156  0.19040910733462654  0.5763523234310961  1.0000
  Cl  Cl1       1.0  0.5721568637657021  0.5798594207759594  0.333013255479883  1.0000
  Cl  Cl2       1.0  0.42784313686392145  0.07985942089721867  0.16698674514108847  1.0000
  Cl  Cl3       1.0  0.42784313635956206  0.420140578981522  0.6669867448046056  1.0000
  Cl  Cl4       1.0  0.5721568632613426  0.920140579409978  0.8330132551434002  1.0000
