data_image0
_chemical_formula_structural       H88C88N8O32
_chemical_formula_sum              "H88 C88 N8 O32"
_cell_length_a       12.709194710891067
_cell_length_b       25.821730854118446
_cell_length_c       6.091680790888196
_cell_angle_alpha    90.0
_cell_angle_beta     90.0
_cell_angle_gamma    90.0

_space_group_name_H-M_alt    "P 1"
_space_group_IT_number       1

loop_
  _space_group_symop_operation_xyz
  'x, y, z'

loop_
  _atom_site_type_symbol
  _atom_site_label
  _atom_site_symmetry_multiplicity
  _atom_site_fract_x
  _atom_site_fract_y
  _atom_site_fract_z
  _atom_site_occupancy
  H   H1        1.0  0.014111817788605225  0.24999999986330848  0.83275217860855  1.0000
  H   H2        1.0  0.4858881817829228  0.7499999999771962  0.3327521778606608  1.0000
  H   H3        1.0  0.9858881821412827  0.7499999999771962  0.16724782124564527  1.0000
  H   H4        1.0  0.5141118181469652  0.24999999986330848  0.6672478219935344  1.0000
  H   H5        1.0  0.14612568870382756  0.24999999986330848  0.7376304462179214  1.0000
  H   H6        1.0  0.35387431165453237  0.7499999999771962  0.2376304454700322  1.0000
  H   H7        1.0  0.8538743112260604  0.7499999999771962  0.2623695536362739  1.0000
  H   H8        1.0  0.6461256882753555  0.24999999986330848  0.7623695543841631  1.0000
  H   H9        1.0  0.33312230840022794  0.24999999986330848  0.314003695476155  1.0000
  H   H10       1.0  0.166877691958132  0.7499999999771962  0.814003694582461  1.0000
  H   H11       1.0  0.66687769152966  0.7499999999771962  0.6859963043780403  1.0000
  H   H12       1.0  0.833122308758588  0.24999999986330848  0.18599630527173416  1.0000
  H   H13       1.0  0.06388464796311823  0.2994924470280642  0.16211664955871868  1.0000
  H   H14       1.0  0.43611535239524174  0.7005075531997111  0.6621166503066078  1.0000
  H   H15       1.0  0.9361153519667696  0.7994924471419519  0.8378833502954766  1.0000
  H   H16       1.0  0.5638846475346462  0.20050755308582346  0.33788334954758736  1.0000
  H   H17       1.0  0.9361153519667696  0.7005075531997111  0.8378833502954766  1.0000
  H   H18       1.0  0.5638846475346462  0.2994924470280642  0.33788334954758736  1.0000
  H   H19       1.0  0.06388464796311823  0.20050755308582346  0.16211664955871868  1.0000
  H   H20       1.0  0.43611535239524174  0.7994924471419519  0.6621166503066078  1.0000
  H   H21       1.0  0.2355864236963977  0.33207669301658604  0.23633648567952736  1.0000
  H   H22       1.0  0.2644135766619622  0.6679233072111893  0.7363364864274166  1.0000
  H   H23       1.0  0.7644135762334902  0.8320766927432031  0.7636635141746678  1.0000
  H   H24       1.0  0.7355864232679257  0.16792330709730163  0.26366351342677874  1.0000
  H   H25       1.0  0.7644135762334902  0.6679233072111893  0.7636635141746678  1.0000
  H   H26       1.0  0.7355864232679257  0.33207669301658604  0.26366351342677874  1.0000
  H   H27       1.0  0.2355864236963977  0.16792330709730163  0.23633648567952736  1.0000
  H   H28       1.0  0.2644135766619622  0.8320766927432031  0.7363364864274166  1.0000
  H   H29       1.0  0.20064213571413717  0.24999999986330848  0.3974946477205262  1.0000
  H   H30       1.0  0.29935786464422276  0.7499999999771962  0.8974946484684153  1.0000
  H   H31       1.0  0.7993578642157507  0.7499999999771962  0.6025053521336691  1.0000
  H   H32       1.0  0.7006421352856652  0.24999999986330848  0.10250535138577987  1.0000
  H   H33       1.0  0.12055919945006284  0.4266666534572293  0.9443500779956712  1.0000
  H   H34       1.0  0.37944080012146514  0.573333346770546  0.4443500772477821  1.0000
  H   H35       1.0  0.8794408004798251  0.9266666531838462  0.05564992185852403  1.0000
  H   H36       1.0  0.6205591998084228  0.0733333466566584  0.5556499226064132  1.0000
  H   H37       1.0  0.8794408004798251  0.573333346770546  0.05564992185852403  1.0000
  H   H38       1.0  0.6205591998084228  0.4266666534572293  0.5556499226064132  1.0000
  H   H39       1.0  0.12055919945006284  0.0733333466566584  0.9443500779956712  1.0000
  H   H40       1.0  0.37944080012146514  0.9266666531838462  0.4443500772477821  1.0000
  H   H41       1.0  0.4629608565960408  0.32321902885409554  0.9119851549526085  1.0000
  H   H42       1.0  0.0370391429754872  0.6767809713736798  0.4119851542047193  1.0000
  H   H43       1.0  0.5370391433338471  0.8232190285807126  0.08801484490158676  1.0000
  H   H44       1.0  0.9629608569544007  0.17678097125979209  0.5880148456494759  1.0000
  H   H45       1.0  0.5370391433338471  0.6767809713736798  0.08801484490158676  1.0000
  H   H46       1.0  0.9629608569544007  0.32321902885409554  0.5880148456494759  1.0000
  H   H47       1.0  0.4629608565960408  0.17678097125979209  0.9119851549526085  1.0000
  H   H48       1.0  0.0370391429754872  0.8232190285807126  0.4119851542047193  1.0000
  H   H49       1.0  0.9465837044490861  0.4055880765378517  0.35633277982110195  1.0000
  H   H50       1.0  0.5534162958391616  0.5944119233026529  0.8563327805689912  1.0000
  H   H51       1.0  0.05341629548080175  0.9055880766517395  0.6436672200330933  1.0000
  H   H52       1.0  0.4465837040907263  0.09441192318876522  0.1436672192852041  1.0000
  H   H53       1.0  0.05341629548080175  0.5944119233026529  0.6436672200330933  1.0000
  H   H54       1.0  0.4465837040907263  0.4055880765378517  0.1436672192852041  1.0000
  H   H55       1.0  0.9465837044490861  0.09441192318876522  0.35633277982110195  1.0000
  H   H56       1.0  0.5534162958391616  0.9055880766517395  0.8563327805689912  1.0000
  H   H57       1.0  0.9691280848380709  0.5537451889178618  0.40621566115239616  1.0000
  H   H58       1.0  0.530871915450177  0.44625481130991357  0.9062156619002852  1.0000
  H   H59       1.0  0.030871915878649014  0.05374518880397413  0.5937843387017991  1.0000
  H   H60       1.0  0.46912808447971094  0.9462548110365305  0.09378433795390993  1.0000
  H   H61       1.0  0.030871915878649014  0.44625481130991357  0.5937843387017991  1.0000
  H   H62       1.0  0.46912808447971094  0.5537451889178618  0.09378433795390993  1.0000
  H   H63       1.0  0.9691280848380709  0.9462548110365305  0.40621566115239616  1.0000
  H   H64       1.0  0.530871915450177  0.05374518880397413  0.9062156619002852  1.0000
  H   H65       1.0  0.8562933244443923  0.36552758695084125  0.03362796033344547  1.0000
  H   H66       1.0  0.6437066758438555  0.6344724132769342  0.5336279610813346  1.0000
  H   H67       1.0  0.14370667548549562  0.8655275866774581  0.9663720395207498  1.0000
  H   H68       1.0  0.35629332408603237  0.13447241316304645  0.4663720387728606  1.0000
  H   H69       1.0  0.14370667548549562  0.6344724132769342  0.9663720395207498  1.0000
  H   H70       1.0  0.35629332408603237  0.36552758695084125  0.4663720387728606  1.0000
  H   H71       1.0  0.8562933244443923  0.13447241316304645  0.03362796033344547  1.0000
  H   H72       1.0  0.6437066758438555  0.8655275866774581  0.5336279610813346  1.0000
  H   H73       1.0  0.7783056373763336  0.4225134872498255  0.7480568723850645  1.0000
  H   H74       1.0  0.7216943629119142  0.5774865129779498  0.24805687163717535  1.0000
  H   H75       1.0  0.22169436255355437  0.9225134873637131  0.2519431274691307  1.0000
  H   H76       1.0  0.2783056370179737  0.07748651286406216  0.7519431282170198  1.0000
  H   H77       1.0  0.22169436255355437  0.5774865129779498  0.2519431274691307  1.0000
  H   H78       1.0  0.2783056370179737  0.4225134872498255  0.7519431282170198  1.0000
  H   H79       1.0  0.7783056373763336  0.07748651286406216  0.7480568723850645  1.0000
  H   H80       1.0  0.7216943629119142  0.9225134873637131  0.24805687163717535  1.0000
  H   H81       1.0  0.797416144810126  0.519445748070784  0.7907398689053219  1.0000
  H   H82       1.0  0.7025838546912898  0.48055425176972066  0.2907398681574328  1.0000
  H   H83       1.0  0.20258385511976187  0.0194457479568963  0.2092601309488733  1.0000
  H   H84       1.0  0.29741614523859805  0.9805542518836083  0.7092601316967625  1.0000
  H   H85       1.0  0.20258385511976187  0.48055425176972066  0.2092601309488733  1.0000
  H   H86       1.0  0.29741614523859805  0.519445748070784  0.7092601316967625  1.0000
  H   H87       1.0  0.797416144810126  0.9805542518836083  0.7907398689053219  1.0000
  H   H88       1.0  0.7025838546912898  0.0194457479568963  0.2907398681574328  1.0000
  C   C1        1.0  0.11899808244372745  0.29880424180664056  0.021367606817924118  1.0000
  C   C2        1.0  0.3810019171278005  0.7011957580338641  0.5213676075658132  1.0000
  C   C3        1.0  0.8810019174861605  0.7988042419205282  0.978632393036271  1.0000
  C   C4        1.0  0.6189980828020873  0.20119575830724712  0.478632392288382  1.0000
  C   C5        1.0  0.8810019174861605  0.7011957580338641  0.978632393036271  1.0000
  C   C6        1.0  0.6189980828020873  0.29880424180664056  0.478632392288382  1.0000
  C   C7        1.0  0.11899808244372745  0.20119575830724712  0.021367606817924118  1.0000
  C   C8        1.0  0.3810019171278005  0.7988042419205282  0.5213676075658132  1.0000
  C   C9        1.0  0.2304646066591453  0.29939107427289186  0.12128135655188826  1.0000
  C   C10       1.0  0.26953539369921464  0.7006089255676128  0.6212813572997774  1.0000
  C   C11       1.0  0.7695353940575745  0.7993910743867795  0.8787186433023071  1.0000
  C   C12       1.0  0.7304646062306732  0.20060892584099577  0.3787186441960009  1.0000
  C   C13       1.0  0.7695353940575745  0.7006089255676128  0.8787186433023071  1.0000
  C   C14       1.0  0.7304646062306732  0.29939107427289186  0.3787186441960009  1.0000
  C   C15       1.0  0.2304646066591453  0.20060892584099577  0.12128135655188826  1.0000
  C   C16       1.0  0.26953539369921464  0.7993910743867795  0.6212813572997774  1.0000
  C   C17       1.0  0.2521162113642169  0.24999999986330848  0.25275743310501037  1.0000
  C   C18       1.0  0.2478837882073111  0.7499999999771962  0.7527574322113164  1.0000
  C   C19       1.0  0.747883788565671  0.7499999999771962  0.7472425667491849  1.0000
  C   C20       1.0  0.7521162117225769  0.24999999986330848  0.24724256764287875  1.0000
  C   C21       1.0  0.0966996499744266  0.24999999986330848  0.8853739624813162  1.0000
  C   C22       1.0  0.40330035038393336  0.7499999999771962  0.385373961733427  1.0000
  C   C23       1.0  0.9033003499554614  0.7499999999771962  0.11462603737287907  1.0000
  C   C24       1.0  0.5966996495459546  0.24999999986330848  0.6146260381207682  1.0000
  C   C25       1.0  0.09747726021841246  0.34962076791068813  0.9037134099729025  1.0000
  C   C26       1.0  0.4025227393531155  0.6503792323170872  0.4037134092250135  1.0000
  C   C27       1.0  0.9025227397114755  0.8496207676373051  0.09628658988129261  1.0000
  C   C28       1.0  0.5974772605767724  0.15037923220319954  0.5962865906291818  1.0000
  C   C29       1.0  0.9025227397114755  0.6503792323170872  0.09628658988129261  1.0000
  C   C30       1.0  0.5974772605767724  0.34962076791068813  0.5962865906291818  1.0000
  C   C31       1.0  0.09747726021841246  0.15037923220319954  0.9037134099729025  1.0000
  C   C32       1.0  0.4025227393531155  0.8496207676373051  0.4037134092250135  1.0000
  C   C33       1.0  0.31366217850009676  0.310254246520513  0.9473110768758128  1.0000
  C   C34       1.0  0.1863378210714312  0.6897457537072623  0.44731107612792365  1.0000
  C   C35       1.0  0.6863378214297912  0.8102542462471299  0.05268892297838244  1.0000
  C   C36       1.0  0.8136621788584567  0.18974575359337473  0.5526889237262717  1.0000
  C   C37       1.0  0.6863378214297912  0.6897457537072623  0.05268892297838244  1.0000
  C   C38       1.0  0.8136621788584567  0.310254246520513  0.5526889237262717  1.0000
  C   C39       1.0  0.31366217850009676  0.18974575359337473  0.9473110768758128  1.0000
  C   C40       1.0  0.1863378210714312  0.8102542462471299  0.44731107612792365  1.0000
  C   C41       1.0  0.8286197646319358  0.49245434830995666  0.9121315217815029  1.0000
  C   C42       1.0  0.671380235656312  0.507545651530548  0.41213152103361383  1.0000
  C   C43       1.0  0.17138023529795213  0.9924543484238444  0.0878684797142753  1.0000
  C   C44       1.0  0.32861976427357587  0.007545651803931014  0.5878684788205814  1.0000
  C   C45       1.0  0.17138023529795213  0.507545651530548  0.0878684797142753  1.0000
  C   C46       1.0  0.32861976427357587  0.49245434830995666  0.5878684788205814  1.0000
  C   C47       1.0  0.8286197646319358  0.007545651803931014  0.9121315217815029  1.0000
  C   C48       1.0  0.671380235656312  0.9924543484238444  0.41213152103361383  1.0000
  C   C49       1.0  0.8182535279822525  0.4391305553473951  0.8892642106432761  1.0000
  C   C50       1.0  0.6817464715191635  0.5608694448803803  0.389264209895387  1.0000
  C   C51       1.0  0.18174647194763544  0.9391305554612828  0.11073578921091906  1.0000
  C   C52       1.0  0.31825352841072446  0.06086944476649258  0.6107357899588082  1.0000
  C   C53       1.0  0.18174647194763544  0.5608694448803803  0.11073578921091906  1.0000
  C   C54       1.0  0.31825352841072446  0.4391305553473951  0.6107357899588082  1.0000
  C   C55       1.0  0.8182535279822525  0.06086944476649258  0.8892642106432761  1.0000
  C   C56       1.0  0.6817464715191635  0.9391305554612828  0.389264209895387  1.0000
  C   C57       1.0  0.861621012117788  0.40740869384137773  0.05140812211769545  1.0000
  C   C58       1.0  0.6383789873836279  0.5925913059991269  0.5514081228655846  1.0000
  C   C59       1.0  0.13837898781209992  0.9074086939552655  0.9485918777364998  1.0000
  C   C60       1.0  0.36162101254626  0.09259130627250992  0.4485918786301937  1.0000
  C   C61       1.0  0.13837898781209992  0.5925913059991269  0.9485918777364998  1.0000
  C   C62       1.0  0.36162101254626  0.40740869384137773  0.4485918786301937  1.0000
  C   C63       1.0  0.861621012117788  0.09259130627250992  0.05140812211769545  1.0000
  C   C64       1.0  0.6383789873836279  0.9074086939552655  0.5514081228655846  1.0000
  C   C65       1.0  0.912452592300157  0.42991221048334294  0.229134381448192  1.0000
  C   C66       1.0  0.5875474079880908  0.5700877897444324  0.7291343821960812  1.0000
  C   C67       1.0  0.08754740762973087  0.92991221020996  0.7708656184060032  1.0000
  C   C68       1.0  0.4124525919417972  0.07008778963054474  0.27086561765811407  1.0000
  C   C69       1.0  0.08754740762973087  0.5700877897444324  0.7708656184060032  1.0000
  C   C70       1.0  0.4124525919417972  0.42991221048334294  0.27086561765811407  1.0000
  C   C71       1.0  0.912452592300157  0.07008778963054474  0.229134381448192  1.0000
  C   C72       1.0  0.5875474079880908  0.92991221020996  0.7291343821960812  1.0000
  C   C73       1.0  0.9205216314747728  0.4841151149248462  0.2414089707720193  1.0000
  C   C74       1.0  0.5794783688134749  0.5158848853029291  0.7414089698783254  1.0000
  C   C75       1.0  0.07947836924194698  0.9841151146514633  0.7585910290821759  1.0000
  C   C76       1.0  0.4205216311164129  0.015884885189041423  0.25859102997586986  1.0000
  C   C77       1.0  0.07947836924194698  0.5158848853029291  0.7585910290821759  1.0000
  C   C78       1.0  0.4205216311164129  0.4841151149248462  0.25859102997586986  1.0000
  C   C79       1.0  0.9205216314747728  0.015884885189041423  0.2414089707720193  1.0000
  C   C80       1.0  0.5794783688134749  0.9841151146514633  0.7414089698783254  1.0000
  C   C81       1.0  0.9736626357133213  0.5115721074094116  0.41723540961006483  1.0000
  C   C82       1.0  0.5263373645749265  0.48842789281836374  0.917235410357954  1.0000
  C   C83       1.0  0.02633736500339852  0.011572107295523952  0.5827645902441304  1.0000
  C   C84       1.0  0.4736626353549614  0.9884278925449806  0.08276458949624128  1.0000
  C   C85       1.0  0.02633736500339852  0.48842789281836374  0.5827645902441304  1.0000
  C   C86       1.0  0.4736626353549614  0.5115721074094116  0.08276458949624128  1.0000
  C   C87       1.0  0.9736626357133213  0.9884278925449806  0.41723540961006483  1.0000
  C   C88       1.0  0.5263373645749265  0.011572107295523952  0.917235410357954  1.0000
  N   N1        1.0  0.8783543516280999  0.5144064813099639  0.08236889246569341  1.0000
  N   N2        1.0  0.621645648660148  0.4855935189178114  0.5823688915719996  1.0000
  N   N3        1.0  0.12164564830178808  0.014406481196076277  0.9176311073885018  1.0000
  N   N4        1.0  0.37835435126973993  0.9855935186444283  0.41763110828219574  1.0000
  N   N5        1.0  0.12164564830178808  0.4855935189178114  0.9176311073885018  1.0000
  N   N6        1.0  0.37835435126973993  0.5144064813099639  0.41763110828219574  1.0000
  N   N7        1.0  0.8783543516280999  0.9855935186444283  0.08236889246569341  1.0000
  N   N8        1.0  0.621645648660148  0.014406481196076277  0.5823688915719996  1.0000
  O   O1        1.0  0.04518253855280963  0.35488110157179653  0.7328959302460504  1.0000
  O   O2        1.0  0.45481746101871834  0.6451188986559788  0.23289592949816118  1.0000
  O   O3        1.0  0.9548174613770782  0.8548811012984135  0.2671040696081449  1.0000
  O   O4        1.0  0.5451825389111696  0.14511889854209117  0.767104070356034  1.0000
  O   O5        1.0  0.9548174613770782  0.6451188986559788  0.2671040696081449  1.0000
  O   O6        1.0  0.5451825389111696  0.35488110157179653  0.767104070356034  1.0000
  O   O7        1.0  0.04518253855280963  0.14511889854209117  0.7328959302460504  1.0000
  O   O8        1.0  0.45481746101871834  0.8548811012984135  0.23289592949816118  1.0000
  O   O9        1.0  0.13697623410460322  0.38939770911585836  0.011679047613003162  1.0000
  O   O10       1.0  0.3630237654669248  0.6106022911119169  0.5116790467193092  1.0000
  O   O11       1.0  0.8630237658252846  0.8893977088424754  0.9883209538827752  1.0000
  O   O12       1.0  0.6369762344629631  0.1106022909980293  0.488320953134886  1.0000
  O   O13       1.0  0.8630237658252846  0.6106022911119169  0.9883209538827752  1.0000
  O   O14       1.0  0.6369762344629631  0.38939770911585836  0.488320953134886  1.0000
  O   O15       1.0  0.13697623410460322  0.1106022909980293  0.011679047613003162  1.0000
  O   O16       1.0  0.3630237654669248  0.8893977088424754  0.5116790467193092  1.0000
  O   O17       1.0  0.2936266573052101  0.31763345440849267  0.7523186321343331  1.0000
  O   O18       1.0  0.20637334226631793  0.6823665458192827  0.252318633028027  1.0000
  O   O19       1.0  0.7063733426246779  0.8176334541351097  0.24768136771986216  1.0000
  O   O20       1.0  0.79362665766357  0.18236654570539498  0.7476813668261683  1.0000
  O   O21       1.0  0.7063733426246779  0.6823665458192827  0.24768136771986216  1.0000
  O   O22       1.0  0.79362665766357  0.31763345440849267  0.7476813668261683  1.0000
  O   O23       1.0  0.2936266573052101  0.18236654570539498  0.7523186321343331  1.0000
  O   O24       1.0  0.20637334226631793  0.8176334541351097  0.252318633028027  1.0000
  O   O25       1.0  0.41109220519871076  0.3123310995518986  0.03063260968616713  1.0000
  O   O26       1.0  0.0889077951596492  0.687668900288606  0.5306326104340563  1.0000
  O   O27       1.0  0.5889077947311772  0.8123310996657862  0.9693673901680282  1.0000
  O   O28       1.0  0.9110922055570707  0.18766890017471838  0.46936738942013895  1.0000
  O   O29       1.0  0.5889077947311772  0.687668900288606  0.9693673901680282  1.0000
  O   O30       1.0  0.9110922055570707  0.3123310995518986  0.46936738942013895  1.0000
  O   O31       1.0  0.41109220519871076  0.18766890017471838  0.03063260968616713  1.0000
  O   O32       1.0  0.0889077951596492  0.8123310996657862  0.5306326104340563  1.0000
