data_image0
_chemical_formula_structural       H30C44N10S14
_chemical_formula_sum              "H30 C44 N10 S14"
_cell_length_a       7.909676055634664
_cell_length_b       12.74538895467218
_cell_length_c       13.224195469950333
_cell_angle_alpha    109.14140928824396
_cell_angle_beta     104.62815709557916
_cell_angle_gamma    95.25374641307768

_space_group_name_H-M_alt    "P 1"
_space_group_IT_number       1

loop_
  _space_group_symop_operation_xyz
  'x, y, z'

loop_
  _atom_site_type_symbol
  _atom_site_label
  _atom_site_symmetry_multiplicity
  _atom_site_fract_x
  _atom_site_fract_y
  _atom_site_fract_z
  _atom_site_occupancy
  H   H1        1.0  0.46007489213027813  0.9049930829185787  0.32217716342978453  1.0000
  H   H2        1.0  0.5399251090932629  0.09500691752780481  0.6778228369718753  1.0000
  H   H3        1.0  0.23980076803901884  0.8139986451918503  0.3311386426536229  1.0000
  H   H4        1.0  0.7601992331845222  0.18600135525453296  0.6688613577480368  1.0000
  H   H5        1.0  0.7161622586841461  0.026172900560861627  0.3629585570848982  1.0000
  H   H6        1.0  0.2838377412339095  0.9738270998892705  0.6370414431228494  1.0000
  H   H7        1.0  0.7099498715710173  0.9513331470815093  0.2205397231286245  1.0000
  H   H8        1.0  0.2900501283470383  0.04866685336862302  0.779460277079123  1.0000
  H   H9        1.0  0.8304697441516377  0.9105402879021925  0.3300804950089177  1.0000
  H   H10       1.0  0.16953025550672182  0.0894597117019006  0.6699195048946981  1.0000
  H   H11       1.0  0.9841458195726004  0.9676066063374371  0.8184391649053132  1.0000
  H   H12       1.0  0.01585418165094049  0.03239339410894618  0.1815608354963464  1.0000
  H   H13       1.0  0.016542354323548305  0.10982941190032794  0.8217176886902073  1.0000
  H   H14       1.0  0.9834576466402966  0.8901705877000161  0.17828231140732057  1.0000
  H   H15       1.0  0.11647253727206555  0.07942118754524097  0.9454064046529665  1.0000
  H   H16       1.0  0.88352746264599  0.9205788129048915  0.054593595554780924  1.0000
  H   H17       1.0  0.5081175798198688  0.09809190591361328  0.1782014176547348  1.0000
  H   H18       1.0  0.49188242113950287  0.9019080936839795  0.8217985816850653  1.0000
  H   H19       1.0  0.681125349236155  0.22145604789862075  0.23886421513744063  1.0000
  H   H20       1.0  0.31887465068190063  0.7785439525515114  0.7611357850703068  1.0000
  H   H21       1.0  0.7161157616308844  0.09063120063971607  0.14722752195985622  1.0000
  H   H22       1.0  0.28388423933296025  0.909368798960628  0.8527724781376717  1.0000
  H   H23       1.0  0.5598756669069717  0.42518041420485203  0.3057630749528847  1.0000
  H   H24       1.0  0.440124333011084  0.5748195862452802  0.6942369252548628  1.0000
  H   H25       1.0  0.784317293557014  0.5983225107012082  0.3802665564847277  1.0000
  H   H26       1.0  0.2156827063610416  0.4016774897489241  0.6197334437230198  1.0000
  H   H27       1.0  0.44136546944398547  0.7817576391558619  0.5526908283131019  1.0000
  H   H28       1.0  0.5586345315198594  0.21824236044448234  0.44730917178442614  1.0000
  H   H29       1.0  0.22115266522492688  0.6073887290369975  0.4841730224374578  1.0000
  H   H30       1.0  0.7788473346931287  0.3926112714131349  0.5158269777702897  1.0000
  C   C1        1.0  0.09903411334750155  0.5215785096346283  0.15538145499276435  1.0000
  C   C2        1.0  0.9009658863108578  0.47842148996946493  0.8446185449108514  1.0000
  C   C3        1.0  0.3491231862581741  0.6918431861009677  0.21778933562816344  1.0000
  C   C4        1.0  0.6508768134001852  0.3081568135031253  0.7822106642754524  1.0000
  C   C5        1.0  0.22865080544996882  0.7286734536431081  0.2724199990264973  1.0000
  C   C6        1.0  0.7713491944680868  0.2713265468070241  0.7275800011812502  1.0000
  C   C7        1.0  0.9818225039195967  0.41775878363488655  0.10320328108522234  1.0000
  C   C8        1.0  0.018177495998458967  0.5822412168152458  0.8967967191225252  1.0000
  C   C9        1.0  0.8355751015708264  0.2088735907087041  0.9896992468942867  1.0000
  C   C10       1.0  0.1644248980875332  0.7911264088953891  0.010300753009329122  1.0000
  C   C11       1.0  0.7158165716290454  0.255670761215522  0.04178017613799865  1.0000
  C   C12       1.0  0.2841834282890102  0.7443292392346104  0.9582198240697488  1.0000
  C   C13       1.0  0.51527296617497  0.7578818165262698  0.22333796159649708  1.0000
  C   C14       1.0  0.4847270334833894  0.24211818307782312  0.7766620383071187  1.0000
  C   C15       1.0  0.7112343215339573  0.9433319419973296  0.3009531661211481  1.0000
  C   C16       1.0  0.28876567838409833  0.05666805845280276  0.6990468340865995  1.0000
  C   C17       1.0  0.000986390990519598  0.056894148639147886  0.8707263475782372  1.0000
  C   C18       1.0  0.9990136086678398  0.9431058509649454  0.1292736523253785  1.0000
  C   C19       1.0  0.6188395149197832  0.14442515287380653  0.16491890005175544  1.0000
  C   C20       1.0  0.38116048630375793  0.8555748475725767  0.8350811003499042  1.0000
  C   C21       1.0  0.3685551294367795  0.5033384472385316  0.3847397508612357  1.0000
  C   C22       1.0  0.6314448715270653  0.4966615523618127  0.6152602492362924  1.0000
  C   C23       1.0  0.5328074024338305  0.5035434327507099  0.35852247171001184  1.0000
  C   C24       1.0  0.46719259747975195  0.49645656769667085  0.6414775277400077  1.0000
  C   C25       1.0  0.659265356020508  0.6009422109466696  0.40061682911397023  1.0000
  C   C26       1.0  0.3407346449433369  0.39905778865367464  0.5993831709835578  1.0000
  C   C27       1.0  0.6287629833837804  0.7047874811406948  0.46966583697291525  1.0000
  C   C28       1.0  0.371237016274579  0.29521251846339824  0.5303341629307005  1.0000
  C   C29       1.0  0.46686900960175837  0.7038398346051309  0.4981437976403277  1.0000
  C   C30       1.0  0.5331309916217826  0.29616016584125243  0.501856202761332  1.0000
  C   C31       1.0  0.3416129466129455  0.606286742202299  0.45833574251452197  1.0000
  C   C32       1.0  0.6583870533051102  0.39371325824783343  0.5416642576932255  1.0000
  C   C33       1.0  0.23303561639314707  0.4044770447780592  0.33825635026785855  1.0000
  C   C34       1.0  0.7669643835249086  0.5955229556720731  0.6617436499398891  1.0000
  C   C35       1.0  0.7567645255364048  0.807724238107367  0.5097159586998518  1.0000
  C   C36       1.0  0.24323547438165077  0.19227576234276542  0.4902840415078957  1.0000
  C   C37       1.0  0.24960294513821615  0.2986109571154029  0.26729271813441685  1.0000
  C   C38       1.0  0.7503970545201433  0.7013890424886902  0.7327072817691989  1.0000
  C   C39       1.0  0.06642561196910608  0.40446782684543686  0.35814481950717303  1.0000
  C   C40       1.0  0.9335743889947388  0.5955321727549074  0.6418551805903547  1.0000
  C   C41       1.0  0.921050815305174  0.8104541742739784  0.48726364410462425  1.0000
  C   C42       1.0  0.07894918434871237  0.18954582532736333  0.5127363550412636  1.0000
  C   C43       1.0  0.7183361527204879  0.9114944284104234  0.568462996592747  1.0000
  C   C44       1.0  0.2816638469378715  0.08850557119366974  0.4315370033108688  1.0000
  N   N1        1.0  0.5525410137066634  0.8676601393910887  0.28723959347019445  1.0000
  N   N2        1.0  0.4474589872571813  0.1323398602092555  0.7127604066273334  1.0000
  N   N3        1.0  0.25072479520980445  0.20845582220911818  0.20556171385093394  1.0000
  N   N4        1.0  0.7492752057540403  0.7915441773912261  0.7944382862465941  1.0000
  N   N5        1.0  0.9226445241740908  0.40081791334821265  0.3677149905150728  1.0000
  N   N6        1.0  0.0773554757439647  0.5991820871019197  0.6322850096926748  1.0000
  N   N7        1.0  0.05803170043184353  0.8125997662481624  0.4677913869755849  1.0000
  N   N8        1.0  0.9419682992265158  0.18740023335593067  0.5322086129280309  1.0000
  N   N9        1.0  0.6817774425126861  0.9975575114754701  0.6156538853185074  1.0000
  N   N10       1.0  0.3182225574053695  0.0024424889746622346  0.3843461148892401  1.0000
  S   S1        1.0  0.3023349070548281  0.5490048697558241  0.132296291012365  1.0000
  S   S2        1.0  0.6976650925990582  0.45099512984551754  0.8677037081335227  1.0000
  S   S3        1.0  0.04610732349365453  0.6331200168711563  0.25057808379080854  1.0000
  S   S4        1.0  0.953892676164705  0.3668799827329368  0.7494219161128072  1.0000
  S   S5        1.0  0.030652440345461763  0.29987447640980247  0.012257291568529465  1.0000
  S   S6        1.0  0.9693475595681207  0.7001255240375783  0.9877427078814901  1.0000
  S   S7        1.0  0.772886376828235  0.3995110400503527  0.11883983042638142  1.0000
  S   S8        1.0  0.22711362283012437  0.6004889595537404  0.8811601694772343  1.0000
  S   S9        1.0  0.6451777891296836  0.6921205973131802  0.15049102176979037  1.0000
  S   S10       1.0  0.354822210788372  0.3078794031369522  0.849508978437957  1.0000
  S   S11       1.0  0.7985288561396617  0.06645008622583652  0.9092837449252499  1.0000
  S   S12       1.0  0.20147114377392084  0.9335499142215443  0.09071625452476972  1.0000
  S   S13       1.0  0.5216373430884613  0.18059047692718821  0.043419578298051084  1.0000
  S   S14       1.0  0.47836265682959433  0.819409523522944  0.9565804219096965  1.0000
