data_image0
_chemical_formula_structural       H44C56F4P2Cl4Br2I2
_chemical_formula_sum              "H44 C56 F4 P2 Cl4 Br2 I2"
_cell_length_a       11.188130817448357
_cell_length_b       11.711923920682201
_cell_length_c       12.68594383485399
_cell_angle_alpha    65.55278039573189
_cell_angle_beta     65.78367218847359
_cell_angle_gamma    89.07021556896076

_space_group_name_H-M_alt    "P 1"
_space_group_IT_number       1

loop_
  _space_group_symop_operation_xyz
  'x, y, z'

loop_
  _atom_site_type_symbol
  _atom_site_label
  _atom_site_symmetry_multiplicity
  _atom_site_fract_x
  _atom_site_fract_y
  _atom_site_fract_z
  _atom_site_occupancy
  H   H1        1.0  0.7562101292803185  0.2921600044799905  0.29619083666401447  1.0000
  H   H2        1.0  0.24378986989957308  0.7078399961618518  0.7038091633367309  1.0000
  H   H3        1.0  0.7809780085104577  0.14862378917663685  0.48966912532544643  1.0000
  H   H4        1.0  0.2190219915620641  0.8513762114644651  0.5103308746778434  1.0000
  H   H5        1.0  0.5803204552564146  0.014965087943008902  0.6952891965386367  1.0000
  H   H6        1.0  0.41967954393937934  0.9850349118458481  0.30471080345994206  1.0000
  H   H7        1.0  0.3535347321398539  0.020895676577295814  0.701771923814074  1.0000
  H   H8        1.0  0.6464652679485704  0.9791043232108211  0.29822807618704916  1.0000
  H   H9        1.0  0.327474386295822  0.16096304645960435  0.5108621141796179  1.0000
  H   H10       1.0  0.6725256137926023  0.8390369533285125  0.48913788582150525  1.0000
  H   H11       1.0  0.2341449748124348  0.23176350136393256  0.38780639169565984  1.0000
  H   H12       1.0  0.7658550252600871  0.7682364992771694  0.61219360830763  1.0000
  H   H13       1.0  0.09694047953283043  0.09640815614462729  0.357270160093317  1.0000
  H   H14       1.0  0.903059520555594  0.9035918436434895  0.6427298399078062  1.0000
  H   H15       1.0  0.19631189353025677  0.043190791931520575  0.17377234076024656  1.0000
  H   H16       1.0  0.8036881065581676  0.9568092078565962  0.8262276592408766  1.0000
  H   H17       1.0  0.4348010956421585  0.13155783306691735  0.013356653952140763  1.0000
  H   H18       1.0  0.5651989044462657  0.8684421667211994  0.9866433460489824  1.0000
  H   H19       1.0  0.5755466224282807  0.2642471267027304  0.04443407017520343  1.0000
  H   H20       1.0  0.4244533776601435  0.7357528730853867  0.9555659298259198  1.0000
  H   H21       1.0  0.5255508841123102  0.4728452009892775  0.39811775184248377  1.0000
  H   H22       1.0  0.47444911508348386  0.5271547987995796  0.6018822481560949  1.0000
  H   H23       1.0  0.4313857758428704  0.661504513087703  0.41789668704223587  1.0000
  H   H24       1.0  0.568614224245554  0.3384954867004139  0.5821033129588873  1.0000
  H   H25       1.0  0.2878878420388784  0.7587691296079082  0.3109895204326572  1.0000
  H   H26       1.0  0.7121121580495459  0.24123087018020872  0.6890104795684661  1.0000
  H   H27       1.0  0.23974064860532251  0.6704126386354009  0.18191227445576982  1.0000
  H   H28       1.0  0.760259351483102  0.3295873611527161  0.8180877255453534  1.0000
  H   H29       1.0  0.33644989558216387  0.48526482086686673  0.15793957164926678  1.0000
  H   H30       1.0  0.6635501045062605  0.5147351789212503  0.8420604283518563  1.0000
  H   H31       1.0  0.6551108798427955  0.6070922939804205  0.0707811141059499  1.0000
  H   H32       1.0  0.3448891202456288  0.39290770580769646  0.9292188858951734  1.0000
  H   H33       1.0  0.8796171690863778  0.6983948238800934  0.8847325224129511  1.0000
  H   H34       1.0  0.12038283100204673  0.3016051759080234  0.11526747758817217  1.0000
  H   H35       1.0  0.02536803508484176  0.555851304025883  0.8166064705920029  1.0000
  H   H36       1.0  0.9746319650035826  0.44414869576223387  0.18339352940912038  1.0000
  H   H37       1.0  0.9530753061859274  0.3190668506897815  0.9431742330595939  1.0000
  H   H38       1.0  0.04692469388659448  0.6809331499513204  0.05682576694369609  1.0000
  H   H39       1.0  0.7354333526657343  0.2264977271340576  0.13333986828411112  1.0000
  H   H40       1.0  0.2645666465300598  0.7735022726547998  0.8666601317144675  1.0000
  H   H41       1.0  0.8988146148456158  0.9503737665227376  0.9657854816702037  1.0000
  H   H42       1.0  0.1011853843501783  0.049626233266119604  0.03421451832837505  1.0000
  H   H43       1.0  0.8589476271577067  0.9711192136332081  0.11151351900460216  1.0000
  H   H44       1.0  0.14105237203808735  0.028880786155649176  0.8884864809939765  1.0000
  C   C1        1.0  0.9767474137983941  0.6257122774641708  0.4435130305986358  1.0000
  C   C2        1.0  0.02325258627412767  0.37428772317693104  0.5564869694046543  1.0000
  C   C3        1.0  0.9505998000296955  0.5330524361423816  0.4100915854409069  1.0000
  C   C4        1.0  0.049400200058728715  0.4669475636457352  0.5899084145602163  1.0000
  C   C5        1.0  0.02516814220560251  0.5897963096676188  0.5354538170746248  1.0000
  C   C6        1.0  0.9748318578669193  0.41020369097348314  0.46454618292866506  1.0000
  C   C7        1.0  0.5402746236809177  0.23840466700750462  0.3898355723187649  1.0000
  C   C8        1.0  0.4597253764075066  0.7615953327806122  0.6101644276823583  1.0000
  C   C9        1.0  0.6677563745313253  0.23449802690003937  0.3850907389764194  1.0000
  C   C10       1.0  0.3322436255411966  0.7655019737410624  0.6149092610268706  1.0000
  C   C11       1.0  0.681554107246105  0.15300040646073387  0.49496749776055976  1.0000
  C   C12       1.0  0.3184458928423194  0.8469995933273828  0.5050325022405635  1.0000
  C   C13       1.0  0.5692377689049792  0.07741173576083937  0.60932604427485  1.0000
  C   C14       1.0  0.43076223118344525  0.9225882640272774  0.39067395572627317  1.0000
  C   C15       1.0  0.4422533424260096  0.08099422193394512  0.6140022921717806  1.0000
  C   C16       1.0  0.5577466576465123  0.9190057787071566  0.38599770783150933  1.0000
  C   C17       1.0  0.42735173469405147  0.16056200614955152  0.5047984176389481  1.0000
  C   C18       1.0  0.5726482645017426  0.8394379936393058  0.49520158235963074  1.0000
  C   C19       1.0  0.41597758621648057  0.253950564820206  0.2198910051312457  1.0000
  C   C20       1.0  0.5840224138719439  0.7460494349679109  0.7801089948698775  1.0000
  C   C21       1.0  0.28016323404755994  0.2077750194602318  0.30735852088597465  1.0000
  C   C22       1.0  0.7198367660408643  0.7922249803278852  0.6926414791151486  1.0000
  C   C23       1.0  0.20251910792922673  0.13148845256491165  0.2905453734739671  1.0000
  C   C24       1.0  0.7974808921591976  0.8685115472232053  0.7094546265271562  1.0000
  C   C25       1.0  0.25869743492470504  0.10256341018064156  0.18584075411543144  1.0000
  C   C26       1.0  0.7413025651637192  0.8974365896074755  0.8141592458856918  1.0000
  C   C27       1.0  0.39218806834683073  0.15170627070899992  0.09656565626198667  1.0000
  C   C28       1.0  0.6078119317256911  0.8482937299321018  0.9034343437413033  1.0000
  C   C29       1.0  0.47126855617445634  0.22703574687677572  0.11352353302034066  1.0000
  C   C30       1.0  0.5287314438980655  0.7729642537643263  0.8864764669829491  1.0000
  C   C31       1.0  0.43655556242617843  0.4673514404823043  0.27725135362253644  1.0000
  C   C32       1.0  0.563444437662246  0.5326485593058127  0.7227486463785867  1.0000
  C   C33       1.0  0.4626581409170908  0.51629682223508  0.35127778184608244  1.0000
  C   C34       1.0  0.5373418591713336  0.4837031775530371  0.6487222181550408  1.0000
  C   C35       1.0  0.40965317472353335  0.6214289047880116  0.36262859389375596  1.0000
  C   C36       1.0  0.590346825364891  0.3785710950001052  0.6373714061073673  1.0000
  C   C37       1.0  0.32978592813122126  0.6768140540533055  0.3014937851149725  1.0000
  C   C38       1.0  0.670214071957203  0.32318594573481135  0.6985062148861508  1.0000
  C   C39       1.0  0.30284867041437563  0.6275138074213922  0.2286775888517786  1.0000
  C   C40       1.0  0.6971513296740487  0.37248619236672476  0.7713224111493446  1.0000
  C   C41       1.0  0.356522647057435  0.5231318389646867  0.21559822472445914  1.0000
  C   C42       1.0  0.6434773530150869  0.47686816167641505  0.7844017752788308  1.0000
  C   C43       1.0  0.6783878831084847  0.4108435710883072  0.11244079473029754  1.0000
  C   C44       1.0  0.3216121169799395  0.5891564286998096  0.8875592052708258  1.0000
  C   C45       1.0  0.719456208550122  0.5439660508678338  0.042287406986497814  1.0000
  C   C46       1.0  0.2805437915383025  0.4560339489202831  0.9577125930146254  1.0000
  C   C47       1.0  0.8448780182004412  0.5954024729658622  0.936621421796385  1.0000
  C   C48       1.0  0.1551219818879833  0.40459752682225447  0.06337857820473826  1.0000
  C   C49       1.0  0.9277342251315619  0.514894555151732  0.8995791393312639  1.0000
  C   C50       1.0  0.07226577494096012  0.48510544548936974  0.10042086067202605  1.0000
  C   C51       1.0  0.8872995293181914  0.3823999676883155  0.969373281020482  1.0000
  C   C52       1.0  0.11270047077023297  0.6176000320998012  0.030626718980641312  1.0000
  C   C53       1.0  0.763293488772259  0.32985733710934567  0.0766310163375966  1.0000
  C   C54       1.0  0.23670651131616524  0.6701426626787711  0.9233689836635267  1.0000
  C   C55       1.0  0.8208537220498848  0.941085538080185  0.05812198233063252  1.0000
  C   C56       1.0  0.17914627803853955  0.05891446170793184  0.9418780176704906  1.0000
  F   F1        1.0  0.900019636239172  0.5614588712338903  0.3230873583173951  1.0000
  F   F2        1.0  0.09998036384925223  0.4385411285542265  0.6769126416837282  1.0000
  F   F3        1.0  0.05217426332963644  0.6763346097159177  0.5723600045751734  1.0000
  F   F4        1.0  0.9478257358661576  0.3236653900729394  0.4276399954234053  1.0000
  P   P1        1.0  0.5184202687752885  0.3420280612440048  0.2498847528252175  1.0000
  P   P2        1.0  0.48157973042050567  0.6579719385448524  0.7501152471733612  1.0000
  Cl  Cl1       1.0  0.7068802402753159  0.04276408920258664  0.025365319500453738  1.0000
  Cl  Cl2       1.0  0.29311975981310845  0.9572359105855303  0.9746346805006694  1.0000
  Cl  Cl3       1.0  0.7427966758664559  0.7785224442829206  0.1540804008549212  1.0000
  Cl  Cl4       1.0  0.25720332422196857  0.22147755550519616  0.845919599146202  1.0000
  Br  Br1       1.0  0.9197989807518793  0.09018290014561597  0.21965577054637353  1.0000
  Br  Br2       1.0  0.08020101933654504  0.9098170996425009  0.7803442294547497  1.0000
  I   I1        1.0  0.9547668242470279  0.8189977069093891  0.3489384766300086  1.0000
  I   I2        1.0  0.04523317584139652  0.18100229287872757  0.6510615233711147  1.0000
