data_image0
_chemical_formula_structural       H48C40N4F16Cl4I8
_chemical_formula_sum              "H48 C40 N4 F16 Cl4 I8"
_cell_length_a       7.0557549170195655
_cell_length_b       23.66208830051765
_cell_length_c       9.183407925624344
_cell_angle_alpha    90.0
_cell_angle_beta     97.26386026613768
_cell_angle_gamma    90.0

_space_group_name_H-M_alt    "P 1"
_space_group_IT_number       1

loop_
  _space_group_symop_operation_xyz
  'x, y, z'

loop_
  _atom_site_type_symbol
  _atom_site_label
  _atom_site_symmetry_multiplicity
  _atom_site_fract_x
  _atom_site_fract_y
  _atom_site_fract_z
  _atom_site_occupancy
  H   H1        1.0  0.7396520527768994  0.1640133495704645  0.691170643029202  1.0000
  H   H2        1.0  0.7603479466876236  0.6640133495595262  0.8088293572253599  1.0000
  H   H3        1.0  0.2603479472824065  0.8359866508302758  0.3088293567774174  1.0000
  H   H4        1.0  0.23965205337168227  0.33598665084121404  0.19117064258125951  1.0000
  H   H5        1.0  0.7720779791675116  0.14919339938067808  0.8845247195512762  1.0000
  H   H6        1.0  0.7279220202970115  0.6491933993697397  0.6154752807032856  1.0000
  H   H7        1.0  0.22792202089179436  0.8508066005974452  0.11547528025534315  1.0000
  H   H8        1.0  0.2720779797622944  0.35080660060838353  0.38452471910333375  1.0000
  H   H9        1.0  0.8868709009317735  0.20970476430397933  0.8145363665262516  1.0000
  H   H10       1.0  0.6131290985327496  0.709704764293041  0.68546363372831  1.0000
  H   H11       1.0  0.1131290991275325  0.790295235674144  0.18546363328036766  1.0000
  H   H12       1.0  0.38687090152655634  0.2902952356850823  0.3145363660783093  1.0000
  H   H13       1.0  0.2905782787530768  0.2100672640077697  0.8170858426736114  1.0000
  H   H14       1.0  0.20942172178233728  0.7100672639968313  0.6829141569949293  1.0000
  H   H15       1.0  0.7094217213062292  0.7899327359703535  0.18291415713300796  1.0000
  H   H16       1.0  0.7905782782769687  0.2899327359812919  0.31708584281168994  1.0000
  H   H17       1.0  0.42847819032746465  0.14979078325569686  0.8883293244665131  1.0000
  H   H18       1.0  0.07152181020794941  0.6497907832447585  0.6116706752020277  1.0000
  H   H19       1.0  0.5715218097318413  0.8502092167224263  0.11167067534010623  1.0000
  H   H20       1.0  0.9284781898513566  0.35020921673336475  0.38832932460459174  1.0000
  H   H21       1.0  0.3956875940411745  0.16300094526803124  0.6949231042017037  1.0000
  H   H22       1.0  0.10431240524536795  0.6630009452570929  0.8050768965561025  1.0000
  H   H23       1.0  0.6043124060181314  0.8369990547100921  0.3050768956049157  1.0000
  H   H24       1.0  0.8956875949836951  0.33699905472103037  0.19492310434821472  1.0000
  H   H25       1.0  0.4479589596891087  0.28984381314518054  0.7178166102666318  1.0000
  H   H26       1.0  0.052041041016062405  0.7898438131342421  0.7821833904996067  1.0000
  H   H27       1.0  0.5520410405399543  0.7101561868329427  0.2821833906376854  1.0000
  H   H28       1.0  0.9479589590432437  0.2101561868438811  0.21781660930701258  1.0000
  H   H29       1.0  0.5619415959542537  0.24410321002282961  0.5964228016972397  1.0000
  H   H30       1.0  0.9380584049288981  0.7441032100118913  0.9035771985657545  1.0000
  H   H31       1.0  0.43805840410505226  0.7558967899552936  0.40357719810937964  1.0000
  H   H32       1.0  0.06194159513040785  0.25589678996623194  0.09642280124086483  1.0000
  H   H33       1.0  0.7028488625712621  0.29007688555746963  0.7227874966633497  1.0000
  H   H34       1.0  0.7971511368932609  0.7900768855465312  0.7772125035912119  1.0000
  H   H35       1.0  0.2971511374880438  0.7099231144206536  0.2772125031432695  1.0000
  H   H36       1.0  0.20284886316604503  0.20992311443159198  0.22278749621540742  1.0000
  H   H37       1.0  0.48651660655892776  0.2729270260503051  0.9747502908530227  1.0000
  H   H38       1.0  0.013483393976486272  0.7729270260393668  0.525249708815518  1.0000
  H   H39       1.0  0.5134833935003782  0.7270729743504352  0.02524970895359675  1.0000
  H   H40       1.0  0.9865166060828198  0.22707297393875653  0.4747502909911013  1.0000
  H   H41       1.0  0.7415130188325607  0.2714673045091914  0.9787715195588509  1.0000
  H   H42       1.0  0.7584869806319625  0.771467304498253  0.5212284806957109  1.0000
  H   H43       1.0  0.2584869812267452  0.7285326954689318  0.02122848024776853  1.0000
  H   H44       1.0  0.2415130194273436  0.2285326954798702  0.4787715191109084  1.0000
  H   H45       1.0  0.6194204199575821  0.21299234649081014  0.052899429238652894  1.0000
  H   H46       1.0  0.8805795796256158  0.7129923469024887  0.44710057070604503  1.0000
  H   H47       1.0  0.3805795801017238  0.7870076534873132  0.9471005705679664  1.0000
  H   H48       1.0  0.11942042043369024  0.28700765349825147  0.5528994291005743  1.0000
  C   C1        1.0  0.14319117889240365  0.038996938828083624  0.4728102095091351  1.0000
  C   C2        1.0  0.3568088205128135  0.5389969388171453  0.027189790938807277  1.0000
  C   C3        1.0  0.8568088211669024  0.9610030611500396  0.5271897902974843  1.0000
  C   C4        1.0  0.6431911795464924  0.461003061160978  0.9728102088678121  1.0000
  C   C5        1.0  0.013018422740983365  0.051590365334461805  0.5702648471130108  1.0000
  C   C6        1.0  0.4869815777944307  0.5515903653235235  0.9297351525555296  1.0000
  C   C7        1.0  0.9869815773183227  0.9484096346436613  0.4297351526936084  1.0000
  C   C8        1.0  0.5130184222648753  0.4484096346545998  0.07026484725108956  1.0000
  C   C9        1.0  0.1284615772959257  0.9865975278052398  0.40298414981186387  1.0000
  C   C10       1.0  0.37153842193953446  0.48659752781617815  0.09701584953838062  1.0000
  C   C11       1.0  0.8715384227633804  0.013402472595500465  0.5970158499947555  1.0000
  C   C12       1.0  0.6284615767011428  0.5134024725845621  0.9029841502598062  1.0000
  C   C13       1.0  0.06123124181487108  0.055557403611381194  0.008637400240916141  1.0000
  C   C14       1.0  0.43876875759034617  0.5555574036004428  0.4913626002070263  1.0000
  C   C15       1.0  0.9387687582444348  0.944442596366742  0.9913625995657033  1.0000
  C   C16       1.0  0.5612312424689598  0.4444425963776804  0.508637399599593  1.0000
  C   C17       1.0  0.9007793831214435  0.040603586116233936  0.0745382990923118  1.0000
  C   C18       1.0  0.599220617880383  0.5406035861052956  0.4254617008608186  1.0000
  C   C19       1.0  0.09922061693786242  0.9593964138618892  0.9254617007143074  1.0000
  C   C20       1.0  0.40077938217892295  0.4593964138728277  0.5745382989458007  1.0000
  C   C21       1.0  0.8409391530688384  0.9844039703583738  0.06453454987810345  1.0000
  C   C22       1.0  0.6590608465143594  0.4844039703693122  0.43546545006659454  1.0000
  C   C23       1.0  0.15906084699046752  0.01559602961974944  0.9354654499285158  1.0000
  C   C24       1.0  0.3409391535449465  0.515596030031428  0.5645345497400247  1.0000
  C   C25       1.0  0.7599328146707278  0.18254086136199177  0.8013121328180339  1.0000
  C   C26       1.0  0.7400671862124241  0.6825408613510533  0.6986878674449601  1.0000
  C   C27       1.0  0.2400671853885782  0.8174591386161314  0.19868786698858537  1.0000
  C   C28       1.0  0.259932814016639  0.31745913862706987  0.301312133459357  1.0000
  C   C29       1.0  0.41256656522696933  0.18270084597332115  0.8036751113076835  1.0000
  C   C30       1.0  0.0874334353084448  0.6827008459623828  0.696324888360857  1.0000
  C   C31       1.0  0.5874334348323367  0.8172991544274191  0.1963248884989357  1.0000
  C   C32       1.0  0.9125665647508612  0.3172991544383574  0.30367511144576226  1.0000
  C   C33       1.0  0.5734614448097883  0.26402221395916814  0.7050584264104416  1.0000
  C   C34       1.0  0.9265385546547348  0.7640222139482298  0.79494157384412  1.0000
  C   C35       1.0  0.4265385554192747  0.735977786018955  0.2949415744938757  1.0000
  C   C36       1.0  0.07346144540457113  0.2359777860298935  0.20505842596249924  1.0000
  C   C37       1.0  0.6113638615025251  0.24583082212032595  0.9681911536957716  1.0000
  C   C38       1.0  0.8886361379619981  0.7458308221093876  0.5318088465587901  1.0000
  C   C39       1.0  0.38863613713815226  0.7541691778577974  0.03180884610241521  1.0000
  C   C40       1.0  0.11136386209730784  0.25416917786873566  0.46819115324782923  1.0000
  N   N1        1.0  0.5893493143390202  0.2184900205907396  0.8195998335388462  1.0000
  N   N2        1.0  0.9106506851255031  0.7184900205798013  0.6804001667157155  1.0000
  N   N3        1.0  0.41065068589004294  0.7815099793873836  0.180400167365471  1.0000
  N   N4        1.0  0.08934931493380292  0.281509979398322  0.31959983309090384  1.0000
  F   F1        1.0  0.02173780433191216  0.10232855017902327  0.6406789880414767  1.0000
  F   F2        1.0  0.4782621949546303  0.602328550168085  0.8593210127163294  1.0000
  F   F3        1.0  0.9782621958971509  0.8976714497991  0.3593210128628405  1.0000
  F   F4        1.0  0.5217378051046757  0.3976714498100383  0.14067898709028986  1.0000
  F   F5        1.0  0.2508001049954513  0.9721375378138866  0.3065987314906436  1.0000
  F   F6        1.0  0.2491998956586375  0.4721375378248249  0.1934012678680333  1.0000
  F   F7        1.0  0.7491998950638548  0.02786246216423666  0.6934012683159757  1.0000
  F   F8        1.0  0.7508001044006685  0.5278624621532982  0.8065987319385861  1.0000
  F   F9        1.0  0.6867789717177707  0.9675119967961224  0.12781564162772532  1.0000
  F   F10       1.0  0.8132210292840559  0.46751199680706085  0.3721843583254051  1.0000
  F   F11       1.0  0.31322102834153537  0.03248800318200074  0.872184358178894  1.0000
  F   F12       1.0  0.1867789707752501  0.5324880031710624  0.6278156414812143  1.0000
  F   F13       1.0  0.12475766755500564  0.10989854010235905  0.01408989198994624  1.0000
  F   F14       1.0  0.3752423318502115  0.6098985400914206  0.4859101084579961  1.0000
  F   F15       1.0  0.8752423325043003  0.8901014598757641  0.9859101078166729  1.0000
  F   F16       1.0  0.6247576682090945  0.39010145988670253  0.5140898913486233  1.0000
  Cl  Cl1       1.0  0.5973079546983155  0.1973673460553282  0.3536224748254923  1.0000
  Cl  Cl2       1.0  0.902692046303511  0.6973673460443899  0.14637752512763813  1.0000
  Cl  Cl3       1.0  0.40269204536099046  0.802632653922795  0.646377524981127  1.0000
  Cl  Cl4       1.0  0.09730795375579496  0.3026326539337334  0.8536224746789812  1.0000
  I   I1        1.0  0.34266665032177906  0.09961687785386351  0.42303941933199374  1.0000
  I   I2        1.0  0.1573333490834381  0.5996168778429252  0.07696058111594867  1.0000
  I   I3        1.0  0.6573333497375269  0.9003831221242596  0.5769605804746256  1.0000
  I   I4        1.0  0.8426666497269962  0.4003831221351981  0.923039419779936  1.0000
  I   I5        1.0  0.7576798624204105  0.10068837246067916  0.18998074398058404  1.0000
  I   I6        1.0  0.7423201371627873  0.6006883724497408  0.31001925596411395  1.0000
  I   I7        1.0  0.24232013763889548  0.8993116275174441  0.8100192558260353  1.0000
  I   I8        1.0  0.2576798628965186  0.39931162752838245  0.6899807438425054  1.0000
