data_image0
_chemical_formula_structural       H60C48N8F16Br4I8
_chemical_formula_sum              "H60 C48 N8 F16 Br4 I8"
_cell_length_a       13.875420363417435
_cell_length_b       16.58043554928237
_cell_length_c       7.838135812947369
_cell_angle_alpha    90.0
_cell_angle_beta     102.66214054725266
_cell_angle_gamma    90.0

_space_group_name_H-M_alt    "P 1"
_space_group_IT_number       1

loop_
  _space_group_symop_operation_xyz
  'x, y, z'

loop_
  _atom_site_type_symbol
  _atom_site_label
  _atom_site_symmetry_multiplicity
  _atom_site_fract_x
  _atom_site_fract_y
  _atom_site_fract_z
  _atom_site_occupancy
  H   H1        1.0  0.36225084857362705  0.1969744172457131  0.10952249994495923  1.0000
  H   H2        1.0  0.6377491513186339  0.6969744169657938  0.39047749913336727  1.0000
  H   H3        1.0  0.6377491514807279  0.8030255827975686  0.8904775001313394  1.0000
  H   H4        1.0  0.362250848735721  0.303025583077488  0.6095225009429314  1.0000
  H   H5        1.0  0.4570325334740111  0.2537974408146433  0.2533182067983126  1.0000
  H   H6        1.0  0.5429674664182498  0.7537974411378444  0.24668179228001386  1.0000
  H   H7        1.0  0.5429674665803438  0.7462025592286385  0.7466817932779861  1.0000
  H   H8        1.0  0.4570325336361051  0.24620255890543735  0.7533182077962848  1.0000
  H   H9        1.0  0.36631539338430863  0.19838899166568458  0.3389694947873824  1.0000
  H   H10       1.0  0.6336846066712765  0.6983889913857653  0.16103050559855683  1.0000
  H   H11       1.0  0.6336846066700462  0.8016110083775972  0.6610305052889163  1.0000
  H   H12       1.0  0.3663153933830784  0.3016110080543961  0.8389694944777418  1.0000
  H   H13       1.0  0.4949157337465303  0.12705945955027592  0.5382969056462269  1.0000
  H   H14       1.0  0.5050842664699184  0.6270594598734771  0.961703095428044  1.0000
  H   H15       1.0  0.5050842663078245  0.8729405404930058  0.4617030944300717  1.0000
  H   H16       1.0  0.49491573358443636  0.3729405401698047  0.038296904648254707  1.0000
  H   H17       1.0  0.5882086496651023  0.18116591033279644  0.4562247199658231  1.0000
  H   H18       1.0  0.4117913503904828  0.6811659106559975  0.04377528042011616  1.0000
  H   H19       1.0  0.4117913503892525  0.8188340897104853  0.5437752801104756  1.0000
  H   H20       1.0  0.5882086496638721  0.31883408938728425  0.9562247196561826  1.0000
  H   H21       1.0  0.5880735745071201  0.07302827699555862  0.4561709535978954  1.0000
  H   H22       1.0  0.41192642554846504  0.5730282773187597  0.04382904678804386  1.0000
  H   H23       1.0  0.41192642554723485  0.9269717230477231  0.5438290464784032  1.0000
  H   H24       1.0  0.5880735745058898  0.42697172272452205  0.9561709532882547  1.0000
  H   H25       1.0  0.36716170640668266  0.054726411577244324  0.10516216136468313  1.0000
  H   H26       1.0  0.6328382936489027  0.5547264119004455  0.39483783902125613  1.0000
  H   H27       1.0  0.6328382936476722  0.9452735884660375  0.8948378387116155  1.0000
  H   H28       1.0  0.36716170640545237  0.44527358814283635  0.6051621610550426  1.0000
  H   H29       1.0  0.36938666613242827  0.051185537766933534  0.3361856754981795  1.0000
  H   H30       1.0  0.6306133337598326  0.5511855380901346  0.16381432358014697  1.0000
  H   H31       1.0  0.6306133339219266  0.9488144622763482  0.6638143245781192  1.0000
  H   H32       1.0  0.3693866662945222  0.4488144619531471  0.8361856764961517  1.0000
  H   H33       1.0  0.46367150656678174  0.9999093208813543  0.2507445215181738  1.0000
  H   H34       1.0  0.5363284934888034  0.4999093211612738  0.24925547886776547  1.0000
  H   H35       1.0  0.5363284934875732  9.067916192738822e-05  0.7492554785581249  1.0000
  H   H36       1.0  0.46367150656555145  0.5000906788820081  0.7507445212085332  1.0000
  H   H37       1.0  0.49128790465906574  0.12692921146399488  0.9993119214267681  1.0000
  H   H38       1.0  0.5087120953940589  0.6269292117871961  0.50068807833989  1.0000
  H   H39       1.0  0.5087120953952892  0.8730707885792869  0.0006880786495306069  1.0000
  H   H40       1.0  0.49128790466029604  0.37307078825608575  0.49931192173640865  1.0000
  H   H41       1.0  0.5878435929767789  0.07606670984313123  0.15246914445220652  1.0000
  H   H42       1.0  0.41215640707880624  0.5760667101663324  0.34753085593373273  1.0000
  H   H43       1.0  0.41215640707757595  0.9239332902001505  0.8475308556240921  1.0000
  H   H44       1.0  0.5878435929755486  0.4239332898769494  0.6524691441425658  1.0000
  H   H45       1.0  0.5827937466574118  0.18491898966626985  0.14988998148833746  1.0000
  H   H46       1.0  0.4172062532348492  0.684918989989471  0.350110017589989  1.0000
  H   H47       1.0  0.41720625339694317  0.815081010377012  0.8501100185879613  1.0000
  H   H48       1.0  0.5827937468195057  0.3150810100538108  0.6498899824863097  1.0000
  H   H49       1.0  0.810781761179071  0.1180912198705628  0.1251098939421824  1.0000
  H   H50       1.0  0.18921823887651418  0.618091220193764  0.37489010644375687  1.0000
  H   H51       1.0  0.18921823887528394  0.881908780172719  0.8748901061341163  1.0000
  H   H52       1.0  0.8107817611778407  0.3819087798495179  0.6251098936325418  1.0000
  H   H53       1.0  0.8205725267963195  0.058016930685613664  0.9410856980627754  1.0000
  H   H54       1.0  0.17942747325680503  0.5580169310088148  0.5589143017038826  1.0000
  H   H55       1.0  0.1794274732580353  0.9419830693576681  0.05891430201352317  1.0000
  H   H56       1.0  0.8205725267975499  0.44198306903446694  0.44108569837241607  1.0000
  H   H57       1.0  0.72828152272051  0.03618286553551761  0.06040523993713115  1.0000
  H   H58       1.0  0.27171847733507515  0.5361828652555982  0.4395947604488081  1.0000
  H   H59       1.0  0.2717184773338449  0.9638171345077641  0.9395947601391675  1.0000
  H   H60       1.0  0.7282815227192798  0.46381713478768355  0.5604052396274906  1.0000
  C   C1        1.0  0.06845618225899582  0.21734141538615798  0.8855687354288674  1.0000
  C   C2        1.0  0.9315438177941288  0.717341415709359  0.6144312643377907  1.0000
  C   C3        1.0  0.9315438177953591  0.7826585846571238  0.11443126464743127  1.0000
  C   C4        1.0  0.0684561822602261  0.28265858433392266  0.38556873573850803  1.0000
  C   C5        1.0  0.9856993656003036  0.2466899248721504  0.7677801465020649  1.0000
  C   C6        1.0  0.014300634452821074  0.7466899245922312  0.7322198532645932  1.0000
  C   C7        1.0  0.014300634454051362  0.7533100751711314  0.23221985357423383  1.0000
  C   C8        1.0  0.9856993656015337  0.2533100754510507  0.2677801468117055  1.0000
  C   C9        1.0  0.9169596128251758  0.1946541344108231  0.6680657293412475  1.0000
  C   C10       1.0  0.08304038722794879  0.6946541341309037  0.8319342704254106  1.0000
  C   C11       1.0  0.08304038722917906  0.8053458656324587  0.3319342707350512  1.0000
  C   C12       1.0  0.9169596128264061  0.305345865912378  0.16806572965088806  1.0000
  C   C13       1.0  0.9278578255954949  0.11123586256332249  0.6830333623511013  1.0000
  C   C14       1.0  0.07214217445762977  0.6112358628865235  0.8169666374155568  1.0000
  C   C15       1.0  0.07214217445886005  0.8887641368768388  0.31696663772519734  1.0000
  C   C16       1.0  0.9278578255967251  0.3887641371567581  0.18303336266074197  1.0000
  C   C17       1.0  0.009716219097038561  0.08168333913632435  0.8032754865941453  1.0000
  C   C18       1.0  0.990283780956086  0.5816833394595256  0.6967245131725127  1.0000
  C   C19       1.0  0.9902837809573164  0.9183166609069574  0.19672451348215336  1.0000
  C   C20       1.0  0.00971621909826883  0.4183166605837563  0.3032754869037859  1.0000
  C   C21       1.0  0.07851717484920986  0.13391811411709892  0.9033763476997347  1.0000
  C   C22       1.0  0.9214828252039149  0.6339181138371796  0.5966236520669234  1.0000
  C   C23       1.0  0.921482825205145  0.8660818859261828  0.09662365237656398  1.0000
  C   C24       1.0  0.07851717485044012  0.36608188620610216  0.40337634800937533  1.0000
  C   C25       1.0  0.41097509003328614  0.19956186676550916  0.2397179523194246  1.0000
  C   C26       1.0  0.589024910022299  0.6995618670887103  0.2602820480665146  1.0000
  C   C27       1.0  0.5890249100210687  0.8004381332777726  0.760282047756874  1.0000
  C   C28       1.0  0.41097509003205596  0.3004381329545715  0.7397179520097841  1.0000
  C   C29       1.0  0.5418036636799459  0.12720979034180374  0.4425292936570803  1.0000
  C   C30       1.0  0.4581963362123149  0.6272097906650049  0.057470705421246195  1.0000
  C   C31       1.0  0.45819633637440893  0.872790209701478  0.5574707064192184  1.0000
  C   C32       1.0  0.5418036638420399  0.3727902093782769  0.9425292946550525  1.0000
  C   C33       1.0  0.41419501713082374  0.05224440018027706  0.23701833472415942  1.0000
  C   C34       1.0  0.5858049829247615  0.5522444005034782  0.2629816656617799  1.0000
  C   C35       1.0  0.5858049829235311  0.9477555998630047  0.7629816653521393  1.0000
  C   C36       1.0  0.41419501712959345  0.4477555995398036  0.7370183344145188  1.0000
  C   C37       1.0  0.5395708517663885  0.12913577653831126  0.13026357298577684  1.0000
  C   C38       1.0  0.4604291481258725  0.6291357762583919  0.3697364260925496  1.0000
  C   C39       1.0  0.46042914828796644  0.8708642235049705  0.8697364270905218  1.0000
  C   C40       1.0  0.5395708519284824  0.37086422378488987  0.6302635739837491  1.0000
  C   C41       1.0  0.7017048611449126  0.13926978776501106  0.8994395954545794  1.0000
  C   C42       1.0  0.29829513890821197  0.6392697880882122  0.6005604043120786  1.0000
  C   C43       1.0  0.29829513874611807  0.8607302122782707  0.10056040331410644  1.0000
  C   C44       1.0  0.7017048611461428  0.3607302119550696  0.39943959576422006  1.0000
  C   C45       1.0  0.7687645746377214  0.08511938819731935  0.011817541117326457  1.0000
  C   C46       1.0  0.23123542541786368  0.5851193885205205  0.4881824592686128  1.0000
  C   C47       1.0  0.2312354254166334  0.9148806118459624  0.9881824589589722  1.0000
  C   C48       1.0  0.7687645746364913  0.4148806115227613  0.5118175408076858  1.0000
  N   N1        1.0  0.4765536169312514  0.12691070712500524  0.26282689197203973  1.0000
  N   N2        1.0  0.5234463829610094  0.6269107068450859  0.23717310710628675  1.0000
  N   N3        1.0  0.5234463831231034  0.8730892929182765  0.737173108104259  1.0000
  N   N4        1.0  0.47655361709334537  0.37308929259507545  0.7628268929700118  1.0000
  N   N5        1.0  0.6461267045683338  0.18321075468560158  0.8124972867472565  1.0000
  N   N6        1.0  0.35387329548479085  0.6832107544056822  0.6875027130194017  1.0000
  N   N7        1.0  0.3538732954860211  0.8167892453576802  0.18750271332904223  1.0000
  N   N8        1.0  0.6461267045695641  0.3167892456375995  0.31249728705689706  1.0000
  F   F1        1.0  0.9721249232855799  0.32733060261706465  0.7447999472512258  1.0000
  F   F2        1.0  0.02787507693086907  0.8273306029402657  0.7552000538230452  1.0000
  F   F3        1.0  0.027875076768775094  0.6726693974262171  0.2552000528250729  1.0000
  F   F4        1.0  0.9721249231234859  0.17266939710301596  0.24479994625325358  1.0000
  F   F5        1.0  0.8390885255546806  0.22680389600276582  0.5525604314814089  1.0000
  F   F6        1.0  0.160911474498444  0.7268038957228464  0.9474395682852491  1.0000
  F   F7        1.0  0.16091147449967427  0.773196104040516  0.4474395685948897  1.0000
  F   F8        1.0  0.8390885255559108  0.2731961043204353  0.05256043179104958  1.0000
  F   F9        1.0  0.02406925956585132  0.0011004343007617616  0.8234545833739603  1.0000
  F   F10       1.0  0.9759307406505976  0.5011004346239629  0.6765454177003105  1.0000
  F   F11       1.0  0.9759307404885036  0.99889956574252  0.17654541670233842  1.0000
  F   F12       1.0  0.024069259403757367  0.4988995654193189  0.32345458237598806  1.0000
  F   F13       1.0  0.15747760762244653  0.10195703695330051  0.016319144111732322  1.0000
  F   F14       1.0  0.8425223924331386  0.6019570372765016  0.4836808562742069  1.0000
  F   F15       1.0  0.8425223924319084  0.8980429630899813  0.9836808559645663  1.0000
  F   F16       1.0  0.15747760762121626  0.39804296276678014  0.5163191438020918  1.0000
  Br  Br1       1.0  0.34640881311557803  0.42184983676757104  0.21194117427171827  1.0000
  Br  Br2       1.0  0.6535911869400072  0.9218498364876517  0.28805882611422096  1.0000
  Br  Br3       1.0  0.6535911869387769  0.5781501632757108  0.7880588258045805  1.0000
  Br  Br4       1.0  0.34640881311434774  0.07815016355563006  0.7119411739620778  1.0000
  I   I1        1.0  0.1784949640253642  0.29764763026467067  0.013560066510646007  1.0000
  I   I2        1.0  0.821505036030221  0.7976476305878717  0.4864399338752932  1.0000
  I   I3        1.0  0.8215050360289906  0.7023523697786112  0.9864399335656526  1.0000
  I   I4        1.0  0.17849496402413392  0.20235236945541  0.5135600662010055  1.0000
  I   I5        1.0  0.8229486366370735  0.034398378637567534  0.5273236781391913  1.0000
  I   I6        1.0  0.17705136341605116  0.5343983789607687  0.9726763216274668  1.0000
  I   I7        1.0  0.17705136341728137  0.9656016214057144  0.4726763219371073  1.0000
  I   I8        1.0  0.8229486366383038  0.46560162108251313  0.02732367844883192  1.0000
