data_image0
_chemical_formula_structural       H76C24N4P8I28
_chemical_formula_sum              "H76 C24 N4 P8 I28"
_cell_length_a       8.185093218974291
_cell_length_b       16.33091116580817
_cell_length_c       17.270363564980098
_cell_angle_alpha    87.20426983383433
_cell_angle_beta     79.63027478946117
_cell_angle_gamma    78.37996927797744

_space_group_name_H-M_alt    "P 1"
_space_group_IT_number       1

loop_
  _space_group_symop_operation_xyz
  'x, y, z'

loop_
  _atom_site_type_symbol
  _atom_site_label
  _atom_site_symmetry_multiplicity
  _atom_site_fract_x
  _atom_site_fract_y
  _atom_site_fract_z
  _atom_site_occupancy
  H   H1        1.0  0.1022604895716824  0.7499024789229047  0.23826539573840216  1.0000
  H   H2        1.0  0.897739509758365  0.25009752097240157  0.7617346040318556  1.0000
  H   H3        1.0  0.19829447054232244  0.5769410752916095  0.245551707754402  1.0000
  H   H4        1.0  0.8017055297874697  0.4230589245976059  0.7544482926048915  1.0000
  H   H5        1.0  0.38001251778423517  0.5486082272182619  0.29356942376552586  1.0000
  H   H6        1.0  0.6199874827669035  0.45139177267830805  0.7064305760050776  1.0000
  H   H7        1.0  0.37504505307160907  0.6295829120988174  0.2193971107851674  1.0000
  H   H8        1.0  0.6249549472581829  0.37041708779039806  0.7806028895741263  1.0000
  H   H9        1.0  0.431992825067035  0.7470583140483631  0.32704757902214704  1.0000
  H   H10       1.0  0.568007175262757  0.2529416858408523  0.6729524213371466  1.0000
  H   H11       1.0  0.45790565387628857  0.6611651549965364  0.3961640144287889  1.0000
  H   H12       1.0  0.5420943466748501  0.33883484490003357  0.6038359853418146  1.0000
  H   H13       1.0  0.31422305408275963  0.7563068250105295  0.4263803173019977  1.0000
  H   H14       1.0  0.6857769449938506  0.24369317550993314  0.5736196824675348  1.0000
  H   H15       1.0  0.03212269948449662  0.6759645950765001  0.4709724463267262  1.0000
  H   H16       1.0  0.9678773010666422  0.32403540482006987  0.5290275534438772  1.0000
  H   H17       1.0  0.16745099035802868  0.5775963970804954  0.4466791685240203  1.0000
  H   H18       1.0  0.8325490087506721  0.42240360280745626  0.5533208318349276  1.0000
  H   H19       1.0  0.9796187781621037  0.6079705509108604  0.40401347888309247  1.0000
  H   H20       1.0  0.020381222389034667  0.3920294489857095  0.595986520887511  1.0000
  H   H21       1.0  0.009035857833607915  0.9278351534849697  0.24507767107417597  1.0000
  H   H22       1.0  0.9909641412750927  0.072164846402982  0.754922329284772  1.0000
  H   H23       1.0  0.7891947164186445  0.9541817148289735  0.28999902758728296  1.0000
  H   H24       1.0  0.21080528413249414  0.04581828506759636  0.7100009721833206  1.0000
  H   H25       1.0  0.8563730599865611  0.8760038172293708  0.2150756374857563  1.0000
  H   H26       1.0  0.14362694034323106  0.12399618265984454  0.7849243628735373  1.0000
  H   H27       1.0  0.9831056843750002  0.8209000094300986  0.4716579005152691  1.0000
  H   H28       1.0  0.01689431617613835  0.17909999046647143  0.5283420992553343  1.0000
  H   H29       1.0  0.8699401591043222  0.9201075754741724  0.4455567011046365  1.0000
  H   H30       1.0  0.13005984000437862  0.07989242441377932  0.5544432992543114  1.0000
  H   H31       1.0  0.09247774498940835  0.8912906640780005  0.40830696341321654  1.0000
  H   H32       1.0  0.9075222553403839  0.10870933581121484  0.5916930369460771  1.0000
  H   H33       1.0  0.7128314442160522  0.753785991485732  0.31775838259242106  1.0000
  H   H34       1.0  0.28716855611373987  0.24621400840348331  0.6822416177668726  1.0000
  H   H35       1.0  0.627806334512004  0.8369618534411905  0.3872625184213658  1.0000
  H   H36       1.0  0.3721936660391345  0.16303814645537945  0.6127374813492376  1.0000
  H   H37       1.0  0.7469705687053456  0.7407928834603168  0.4183486744664069  1.0000
  H   H38       1.0  0.2530294306247016  0.2592071164349895  0.5816513253038508  1.0000
  H   H39       1.0  0.699296683021769  0.2693908651576186  0.03984293090236552  1.0000
  H   H40       1.0  0.30070331630827846  0.7306091347376874  0.9601570688678921  1.0000
  H   H41       1.0  0.34854314008456433  0.25236348216884597  0.2343526221657658  1.0000
  H   H42       1.0  0.6514568604665743  0.747636517727724  0.7656473776048376  1.0000
  H   H43       1.0  0.29974687194156896  0.16349792066051666  0.19322885879717352  1.0000
  H   H44       1.0  0.7002531271671317  0.836502079227435  0.8067711415617744  1.0000
  H   H45       1.0  0.29075685317091804  0.2606151374299284  0.13824144280997094  1.0000
  H   H46       1.0  0.7092431473802205  0.7393848624666415  0.8617585569606325  1.0000
  H   H47       1.0  0.5097232596973912  0.16590064992029568  0.0057891593517067005  1.0000
  H   H48       1.0  0.49027674085374723  0.8340993499762741  0.9942108404188967  1.0000
  H   H49       1.0  0.5244581192144908  0.07249674190920867  0.06504113903116841  1.0000
  H   H50       1.0  0.4755418801155565  0.9275032579860976  0.9349588607390893  1.0000
  H   H51       1.0  0.7143062208622031  0.10786160823554287  0.019054116109073826  1.0000
  H   H52       1.0  0.285693779214152  0.892138392278829  0.9809458842494947  1.0000
  H   H53       1.0  0.8163441621521047  0.09858523340975342  0.1732301618311532  1.0000
  H   H54       1.0  0.18365583792425036  0.9014147671046184  0.8267698385274153  1.0000
  H   H55       1.0  0.6189482117701045  0.07093156923989283  0.22011168706428585  1.0000
  H   H56       1.0  0.3810517887810341  0.929068430656677  0.7798883127063175  1.0000
  H   H57       1.0  0.6833702411848309  0.15864210233287138  0.2539619986580839  1.0000
  H   H58       1.0  0.31662975936630783  0.8413578975636984  0.7460380011125195  1.0000
  H   H59       1.0  0.8322267511068128  0.4026503021767803  0.029543790933964833  1.0000
  H   H60       1.0  0.1677732479697978  0.5973496983436823  0.9704562088355676  1.0000
  H   H61       1.0  0.7929493516250523  0.4694337772035261  0.11295117426628441  1.0000
  H   H62       1.0  0.20705064892608616  0.5305662226930439  0.8870488255043191  1.0000
  H   H63       1.0  0.6183326755986974  0.4500799073340961  0.07080800280682117  1.0000
  H   H64       1.0  0.38166732473109455  0.5499200925551192  0.9291919975524725  1.0000
  H   H65       1.0  0.4565279823111278  0.3920545728215336  0.22227907829776763  1.0000
  H   H66       1.0  0.5434720180186642  0.6079454270676817  0.7777209220615262  1.0000
  H   H67       1.0  0.6281098819054619  0.41564792108484355  0.26404645521741565  1.0000
  H   H68       1.0  0.37189011839223995  0.5843520794368827  0.7359535445524626  1.0000
  H   H69       1.0  0.5765083582208677  0.31480482710943375  0.27966571511222593  1.0000
  H   H70       1.0  0.42349164110917975  0.6851951727858725  0.7203342846580317  1.0000
  H   H71       1.0  0.9265697919517815  0.23597085768858275  0.2103173997368313  1.0000
  H   H72       1.0  0.07343020834592037  0.7640291428331435  0.7896826000330469  1.0000
  H   H73       1.0  0.9776863945578078  0.3380909288005385  0.2018730096379689  1.0000
  H   H74       1.0  0.022313604772239353  0.6619090710947678  0.7981269901322888  1.0000
  H   H75       1.0  0.018656462559978562  0.27351851921967113  0.11619200051836624  1.0000
  H   H76       1.0  0.9813435377698132  0.7264814806695443  0.8838079998409275  1.0000
  C   C1        1.0  0.29821097106624095  0.6001848421373032  0.2674176133313234  1.0000
  C   C2        1.0  0.7017890282638064  0.39981515775800297  0.7325823864389343  1.0000
  C   C3        1.0  0.36774844431375037  0.7141233068438098  0.376607459996283  1.0000
  C   C4        1.0  0.6322515560160415  0.2858766930454057  0.6233925403630107  1.0000
  C   C5        1.0  0.08297977505485382  0.6305913943945459  0.42347920766706215  1.0000
  C   C6        1.0  0.9170202254962847  0.3694086055020239  0.5765207921035413  1.0000
  C   C7        1.0  0.8923963367857721  0.9035528222264072  0.26483218795850366  1.0000
  C   C8        1.0  0.1076036635440199  0.09644717766280816  0.7351678124007901  1.0000
  C   C9        1.0  0.973917469369135  0.8679209430505442  0.42411046986712425  1.0000
  C   C10       1.0  0.026082530960656797  0.1320790568386711  0.5758895304921694  1.0000
  C   C11       1.0  0.7346175970680652  0.7850694123845092  0.36883573009875964  1.0000
  C   C12       1.0  0.2653824032617269  0.2149305875047062  0.631164270260534  1.0000
  C   C13       1.0  0.35688902057862293  0.21919939703588914  0.17954512869795117  1.0000
  C   C14       1.0  0.6431109785300778  0.7808006028520625  0.8204548716609967  1.0000
  C   C15       1.0  0.5814469368921554  0.12750523646765588  0.04718476672681268  1.0000
  C   C16       1.0  0.4185530636589831  0.872494763428914  0.9528152330437908  1.0000
  C   C17       1.0  0.6849965427601928  0.12294133293710674  0.2013263464737358  1.0000
  C   C18       1.0  0.3150034577909457  0.8770586669594632  0.7986736532968677  1.0000
  C   C19       1.0  0.74447209886148  0.42300718745010724  0.08415143677687277  1.0000
  C   C20       1.0  0.25552790168965855  0.5769928124464626  0.9158485629937307  1.0000
  C   C21       1.0  0.5822387154210925  0.3667780104663676  0.2371269898486071  1.0000
  C   C22       1.0  0.4177612849086995  0.6332219894228478  0.7628730105106866  1.0000
  C   C23       1.0  0.9326201074943901  0.2912252037298175  0.17192559541645716  1.0000
  C   C24       1.0  0.06737989305674875  0.7087747961667524  0.8280744043541463  1.0000
  N   N1        1.0  0.08301838255182271  0.7518199080774861  0.2998255874282321  1.0000
  N   N2        1.0  0.9169816179993159  0.24818009181908363  0.7001744123423713  1.0000
  N   N3        1.0  0.6585056017252904  0.267889417849871  0.10068983251964474  1.0000
  N   N4        1.0  0.34149439735132  0.7321105826705916  0.8993101672498879  1.0000
  P   P1        1.0  0.20576001168246924  0.674991223856521  0.34259502983416673  1.0000
  P   P2        1.0  0.7942399886473228  0.3250087760326944  0.6574049705251269  1.0000
  P   P3        1.0  0.9226976096430288  0.8261668548368951  0.34007648357718046  1.0000
  P   P4        1.0  0.07730238946567196  0.17383314505105665  0.6599235167817674  1.0000
  P   P5        1.0  0.5712314841771918  0.1855948357833313  0.13283479904919313  1.0000
  P   P6        1.0  0.4287685163739466  0.8144051641132387  0.8671652007214103  1.0000
  P   P7        1.0  0.7290838481828277  0.3361592455317351  0.14912169099693856  1.0000
  P   P8        1.0  0.2709161509258732  0.6638407543562166  0.8508783093620094  1.0000
  I   I1        1.0  0.2739211560415098  0.28753556386962176  0.40579170972951367  1.0000
  I   I2        1.0  0.7260788445096287  0.7124644360269481  0.5942082900410899  1.0000
  I   I3        1.0  0.023418990336004527  0.4235125376769169  0.34309855071603806  1.0000
  I   I4        1.0  0.9765810085192596  0.5764874628361912  0.6569014496421847  1.0000
  I   I5        1.0  0.8043593157377581  0.5585179777035534  0.2742227459343863  1.0000
  I   I6        1.0  0.1956406835922893  0.4414820221917527  0.7257772538358714  1.0000
  I   I7        1.0  0.4362753521712391  0.4365215606325032  0.4685773865856544  1.0000
  I   I8        1.0  0.5637246469374616  0.5634784392554485  0.5314226137732935  1.0000
  I   I9        1.0  0.8766814371499818  0.2662000132825567  0.9043702163740582  1.0000
  I   I10       1.0  0.1233185617052819  0.7337999872305515  0.09562978398416448  1.0000
  I   I11       1.0  0.06972278352569916  0.12790175155826872  0.9997511268682747  1.0000
  I   I12       1.0  0.9302772167720026  0.8720982489634576  0.0002488729016037886  1.0000
  I   I13       1.0  0.20864761057666406  0.01710712930721541  0.11466951362597372  1.0000
  I   I14       1.0  0.7913523897531279  0.9828928705819999  0.8853304867333199  1.0000
  I   I15       1.0  0.7939057540096628  0.21604828900723652  0.3997855718241194  1.0000
  I   I16       1.0  0.20609424606669233  0.7839517115071353  0.6002144285344492  1.0000
  I   I17       1.0  0.09707743010102117  0.08207191827573881  0.3490333068209209  1.0000
  I   I18       1.0  0.9029225704501173  0.9179280816208311  0.6509666929496826  1.0000
  I   I19       1.0  0.3766799035340688  0.9482246772412333  0.288725262580856  1.0000
  I   I20       1.0  0.6233200967957232  0.0517753226479821  0.7112747377784376  1.0000
  I   I21       1.0  0.5842041926948155  0.06509797975248076  0.46764607599647534  1.0000
  I   I22       1.0  0.4157958076349765  0.9349020201367346  0.5323539243628184  1.0000
  I   I23       1.0  0.22183280789440027  0.4574794076241632  0.10319034633823025  1.0000
  I   I24       1.0  0.7781671912143002  0.5425205922637886  0.8968096540207177  1.0000
  I   I25       1.0  0.31207489085024487  0.3454840724676196  0.967794708492966  1.0000
  I   I26       1.0  0.6879251097008937  0.6545159274289504  0.0322052912776374  1.0000
  I   I27       1.0  0.4183472190800381  0.22892927596502494  0.8346776907631797  1.0000
  I   I28       1.0  0.5816527814711004  0.7710707239315449  0.16532230900742373  1.0000
