data_image0
_chemical_formula_structural       H26C28N4O12S2
_chemical_formula_sum              "H26 C28 N4 O12 S2"
_cell_length_a       5.175841214594303
_cell_length_b       5.904643283095858
_cell_length_c       23.472780342500872
_cell_angle_alpha    86.39092285130101
_cell_angle_beta     89.6003684002613
_cell_angle_gamma    78.52120529500287

_space_group_name_H-M_alt    "P 1"
_space_group_IT_number       1

loop_
  _space_group_symop_operation_xyz
  'x, y, z'

loop_
  _atom_site_type_symbol
  _atom_site_label
  _atom_site_symmetry_multiplicity
  _atom_site_fract_x
  _atom_site_fract_y
  _atom_site_fract_z
  _atom_site_occupancy
  H   H1        1.0  0.6689741074827631  0.14340226797007757  0.1399240300711179  1.0000
  H   H2        1.0  0.3310258921901142  0.8565977326852171  0.8600759699922272  1.0000
  H   H3        1.0  0.8119638236532475  0.11072450125909117  0.5137380628133071  1.0000
  H   H4        1.0  0.18803617601962974  0.8892754993962037  0.4862619372500381  1.0000
  H   H5        1.0  0.9957586822313462  0.7427646492547509  0.19980675217182878  1.0000
  H   H6        1.0  0.004241317441530828  0.25723535140054377  0.8001932478915165  1.0000
  H   H7        1.0  0.9571166806026503  0.35021617876187877  0.2563343567943974  1.0000
  H   H8        1.0  0.0428833194504558  0.649783820161896  0.7436656432975167  1.0000
  H   H9        1.0  0.24199669812660976  0.24199290663416456  0.21681159221715476  1.0000
  H   H10       1.0  0.7580033015462675  0.7580070940211302  0.7831884078461904  1.0000
  H   H11       1.0  0.27624622351808786  0.32727226649627544  0.3597759211287784  1.0000
  H   H12       1.0  0.7237537761547894  0.6727277341590193  0.6402240789345668  1.0000
  H   H13       1.0  0.589627032832408  0.6550836908108367  0.45034956076551647  1.0000
  H   H14       1.0  0.41037296722069827  0.34491630811293794  0.5496504393263978  1.0000
  H   H15       1.0  0.5407931582546547  0.9997719344006379  0.3823783777629824  1.0000
  H   H16       1.0  0.45920684141822254  0.00022806625465693497  0.6176216223003629  1.0000
  H   H17       1.0  0.8576169161919017  0.007336942929874517  0.3013381048161192  1.0000
  H   H18       1.0  0.1423830834809753  0.9926630577254203  0.6986618952472259  1.0000
  H   H19       1.0  0.4960554396276924  0.4034505107780366  0.04686346567343471  1.0000
  H   H20       1.0  0.5039445600451848  0.5965494898772582  0.9531365343899105  1.0000
  H   H21       1.0  0.1768412239896581  0.3348251016927776  0.9738616739646276  1.0000
  H   H22       1.0  0.823158775683219  0.6651748989625171  0.026138326098717676  1.0000
  H   H23       1.0  0.0754683552713825  0.733147283461801  0.08159714055525842  1.0000
  H   H24       1.0  0.9245316447817236  0.2668527154619735  0.9184028595366558  1.0000
  H   H25       1.0  0.41212543401356405  0.8186011327236918  0.14559427717547316  1.0000
  H   H26       1.0  0.5878745656593131  0.18139886793160304  0.854405722887872  1.0000
  C   C1        1.0  0.8872432751493372  0.3525467492129274  0.1680711895044272  1.0000
  C   C2        1.0  0.11275672452972833  0.6474532514352885  0.831928810133  1.0000
  C   C3        1.0  0.06499409515600164  0.3791551738002783  0.21679850376926088  1.0000
  C   C4        1.0  0.9350059049032929  0.6208448251164177  0.7832014958967352  1.0000
  C   C5        1.0  0.08721790544524499  0.6683803389694833  0.3270940268822125  1.0000
  C   C6        1.0  0.9127820942276321  0.3316196616858115  0.6729059731811327  1.0000
  C   C7        1.0  0.11579259558856203  0.4741174623455981  0.3650031998062477  1.0000
  C   C8        1.0  0.8842074040843152  0.5258825383096967  0.6349968002570975  1.0000
  C   C9        1.0  0.9349802619535662  0.4705403657205257  0.4094886818616234  1.0000
  C   C10       1.0  0.06501973809954001  0.529459633203249  0.5905113182302907  1.0000
  C   C11       1.0  0.7287701902643452  0.6609544121572206  0.4155294399012141  1.0000
  C   C12       1.0  0.271229809408532  0.33904558849807426  0.5844705601621311  1.0000
  C   C13       1.0  0.7034126616927494  0.8543401014907855  0.37715511144392616  1.0000
  C   C14       1.0  0.29658733798631626  0.1456598991574305  0.622844888193501  1.0000
  C   C15       1.0  0.88117459917696  0.8592289982559544  0.3323507522156914  1.0000
  C   C16       1.0  0.11882540049591714  0.14077100239934043  0.6676492478476539  1.0000
  C   C17       1.0  0.9670845999525856  0.26245680319516673  0.44938834607869677  1.0000
  C   C18       1.0  0.03291539972029153  0.737543197460128  0.5506116539846485  1.0000
  C   C19       1.0  0.3991299367070504  0.25550389060963835  0.05160302230056394  1.0000
  C   C20       1.0  0.6008700629658268  0.7444961100456564  0.9483969777627813  1.0000
  C   C21       1.0  0.21813050986006288  0.2171596667916905  0.011769777958703303  1.0000
  C   C22       1.0  0.7818694901930433  0.7828403321320841  0.9882302221332108  1.0000
  C   C23       1.0  0.09643589685655263  0.02491187667105176  0.020674638096300206  1.0000
  C   C24       1.0  0.9035641028225129  0.9750881239771643  0.979325361541127  1.0000
  C   C25       1.0  0.1660662451413851  0.8811902975042005  0.0702927138795579  1.0000
  C   C26       1.0  0.8339337545314921  0.1188097031510941  0.9297072861837873  1.0000
  C   C27       1.0  0.35264384047939745  0.9298517423578877  0.1073487966091619  1.0000
  C   C28       1.0  0.6473561591934798  0.07014825829740709  0.8926512034541834  1.0000
  N   N1        1.0  0.14108281597890068  0.6047447107856697  0.21310647860501042  1.0000
  N   N2        1.0  0.8589171837001647  0.3952552898625463  0.7868935210324167  1.0000
  N   N3        1.0  0.46703483828671827  0.113587991900829  0.09837657640740355  1.0000
  N   N4        1.0  0.5329651633206535  0.8864120087437063  0.9016234236541585  1.0000
  O   O1        1.0  0.8122083835766353  0.15130042100448926  0.17294556925838198  1.0000
  O   O2        1.0  0.187791616476471  0.8486995779192854  0.8270544308335324  1.0000
  O   O3        1.0  0.8193861914043751  0.5034525481565658  0.1290884287461883  1.0000
  O   O4        1.0  0.18061380864873117  0.4965474507672088  0.8709115713457258  1.0000
  O   O5        1.0  0.5180925716940005  0.462956797777015  0.27953602529244514  1.0000
  O   O6        1.0  0.48190742797887665  0.5370432028782797  0.7204639747709  1.0000
  O   O7        1.0  0.36231209261532565  0.888347396124412  0.2559232819026683  1.0000
  O   O8        1.0  0.6376879074377805  0.1116526027993626  0.744076718189246  1.0000
  O   O9        1.0  0.16193506725758253  0.09999045032917185  0.4462583505351052  1.0000
  O   O10       1.0  0.8380649324152947  0.900009550326123  0.55374164952824  1.0000
  O   O11       1.0  0.7781867808229844  0.26278437426106227  0.48730196250671803  1.0000
  O   O12       1.0  0.2218132188498928  0.7372156263942325  0.5126980375566271  1.0000
  S   S1        1.0  0.3066436720621406  0.660491455671047  0.2683278762631954  1.0000
  S   S2        1.0  0.6933563276107364  0.3395085449842479  0.7316721238001498  1.0000
