data_image0
_chemical_formula_structural       H80C84N4O16
_chemical_formula_sum              "H80 C84 N4 O16"
_cell_length_a       11.682115509372364
_cell_length_b       5.924133418254878
_cell_length_c       25.20865900997547
_cell_angle_alpha    90.0
_cell_angle_beta     96.37203559952776
_cell_angle_gamma    90.0

_space_group_name_H-M_alt    "P 1"
_space_group_IT_number       1

loop_
  _space_group_symop_operation_xyz
  'x, y, z'

loop_
  _atom_site_type_symbol
  _atom_site_label
  _atom_site_symmetry_multiplicity
  _atom_site_fract_x
  _atom_site_fract_y
  _atom_site_fract_z
  _atom_site_occupancy
  H   H1        1.0  0.8581279463768569  0.015459849320371876  0.07842446592584762  1.0000
  H   H2        1.0  0.14187205378536072  0.5154598494676611  0.4215755341661582  1.0000
  H   H3        1.0  0.1418720536189259  0.9845401509742066  0.9215755338852133  1.0000
  H   H4        1.0  0.8581279462030067  0.48454015082691737  0.5784244660411957  1.0000
  H   H5        1.0  0.8444572806963366  0.16289260924246157  0.2702375699319595  1.0000
  H   H6        1.0  0.15554271946588108  0.6628926093897507  0.2297624301600463  1.0000
  H   H7        1.0  0.15554271929944627  0.8371073910521168  0.7297624298791014  1.0000
  H   H8        1.0  0.8444572805224864  0.3371073909048276  0.7702375700473075  1.0000
  H   H9        1.0  0.9897676719771487  0.9058628817277449  0.2427789252968371  1.0000
  H   H10       1.0  0.010232328185068905  0.40586288158045575  0.2572210747951687  1.0000
  H   H11       1.0  0.010232328011218624  0.09413711687882287  0.7572210749105167  1.0000
  H   H12       1.0  0.9897676718032985  0.594137117026112  0.7427789254121852  1.0000
  H   H13       1.0  0.0028504702893762416  0.832180996263291  0.1455692064568546  1.0000
  H   H14       1.0  0.997149529011543  0.33218099611600177  0.35443079358743784  1.0000
  H   H15       1.0  0.9971495297064068  0.16781900403128744  0.8544307933542065  1.0000
  H   H16       1.0  0.0028504709768245044  0.6678190041785766  0.6455692066199159  1.0000
  H   H17       1.0  0.7129815358952739  0.6916575203005854  0.15916186027830992  1.0000
  H   H18       1.0  0.28701846426694366  0.1916575201532962  0.3408381398136959  1.0000
  H   H19       1.0  0.2870184641005089  0.308342479993993  0.8408381395327509  1.0000
  H   H20       1.0  0.7129815357214238  0.8083424801412822  0.6591618603936581  1.0000
  H   H21       1.0  0.579230548846032  0.5527003713168448  0.14071138994677818  1.0000
  H   H22       1.0  0.4207694513236012  0.05270037116955556  0.3592886097489346  1.0000
  H   H23       1.0  0.4207694511497509  0.4472996289777336  0.8592886098642827  1.0000
  H   H24       1.0  0.5792305486721817  0.9472996291250229  0.6407113900621263  1.0000
  H   H25       1.0  0.5954852825283391  0.7298851620518936  0.19652340352630818  1.0000
  H   H26       1.0  0.40451471763387864  0.229885163592615  0.30347659656569764  1.0000
  H   H27       1.0  0.4045147174600283  0.2701148365546742  0.8034765966810458  1.0000
  H   H28       1.0  0.5954852823619042  0.7701148367019635  0.6965234032453633  1.0000
  H   H29       1.0  0.511573751207464  0.37369715765992095  0.23979597620766227  1.0000
  H   H30       1.0  0.4884262489547537  0.8736971578072102  0.2602040238843435  1.0000
  H   H31       1.0  0.4884262487809034  0.6263028426346574  0.7602040239996917  1.0000
  H   H32       1.0  0.5115737510410292  0.1263028424873682  0.7397959759267174  1.0000
  H   H33       1.0  0.5366492476742066  0.18036337714938838  0.1880032702882217  1.0000
  H   H34       1.0  0.46335075248801094  0.680363375608667  0.3119967298037841  1.0000
  H   H35       1.0  0.46335075231416073  0.8196366231451899  0.8119967299191322  1.0000
  H   H36       1.0  0.5366492475077719  0.3196366229979008  0.6880032700072768  1.0000
  H   H37       1.0  0.6033167223635822  0.13706669189756332  0.25393390011898415  1.0000
  H   H38       1.0  0.39668327779863555  0.6370666920448526  0.2460660999730217  1.0000
  H   H39       1.0  0.3966832776322007  0.862933308397015  0.7460660996920767  1.0000
  H   H40       1.0  0.6033167221897319  0.36293330824972586  0.7539339002343323  1.0000
  H   H41       1.0  0.7514442647810512  0.3985406342680753  0.2977100999047936  1.0000
  H   H42       1.0  0.24855573538116646  0.8985406344153645  0.20228990018721224  1.0000
  H   H43       1.0  0.24855573521473168  0.6014593660265032  0.7022898999062673  1.0000
  H   H44       1.0  0.751444264607201  0.10145936587921393  0.7977101000201416  1.0000
  H   H45       1.0  0.8118368451554275  0.6130466607671103  0.2594004112931882  1.0000
  H   H46       1.0  0.18816315500679007  0.11304666061982112  0.24059958879881765  1.0000
  H   H47       1.0  0.18816315484035523  0.3869533395274681  0.7405995885178729  1.0000
  H   H48       1.0  0.8118368449815774  0.8869533396747572  0.7594004114085362  1.0000
  H   H49       1.0  0.6701173665180647  0.6410961910980714  0.27775332085728  1.0000
  H   H50       1.0  0.3298826336441529  0.14109619095078213  0.2222466792347258  1.0000
  H   H51       1.0  0.3298826334703026  0.3589038075084965  0.7222466793500739  1.0000
  H   H52       1.0  0.6701173663442146  0.8589038076557857  0.7777533209726282  1.0000
  H   H53       1.0  0.6482067848746746  0.7934855611987093  0.9791376773322252  1.0000
  H   H54       1.0  0.351793214947258  0.2934855610514201  0.5208623225941836  1.0000
  H   H55       1.0  0.3517932151211083  0.2065144390958691  0.02086232247883555  1.0000
  H   H56       1.0  0.6482067850485249  0.7065144375551478  0.4791376772168772  1.0000
  H   H57       1.0  0.9923680651223467  0.6070017412030689  0.9050051315993424  1.0000
  H   H58       1.0  0.00763193469958605  0.10700174105577977  0.5949948683270667  1.0000
  H   H59       1.0  0.0076319348660208565  0.3929982590915094  0.09499486860801161  1.0000
  H   H60       1.0  0.9923680652961967  0.8929982592387986  0.4050051314839942  1.0000
  H   H61       1.0  0.6318282444218373  0.16626983230404035  0.9139178877594629  1.0000
  H   H62       1.0  0.3681717554000953  0.666269830763319  0.5860821121669461  1.0000
  H   H63       1.0  0.3681717555739456  0.833730167990538  0.08608211205159799  1.0000
  H   H64       1.0  0.6318282445882721  0.3337301678432488  0.41391788804040786  1.0000
  H   H65       1.0  0.8113489327743758  0.7281228536663618  0.8514611870745399  1.0000
  H   H66       1.0  0.18865106704755674  0.22812285351907252  0.6485388128518691  1.0000
  H   H67       1.0  0.1886510672139915  0.2718771466282167  0.14853881313281406  1.0000
  H   H68       1.0  0.8113489329482262  0.7718771467755059  0.35146118695919176  1.0000
  H   H69       1.0  0.630314243653283  0.5060866203251687  0.8552026366155604  1.0000
  H   H70       1.0  0.36968575702994805  0.006086620177879433  0.644797363358562  1.0000
  H   H71       1.0  0.36968575634249984  0.49391337828139914  0.14479736319550052  1.0000
  H   H72       1.0  0.6303142438197179  0.9939133784286883  0.3552026368965052  1.0000
  H   H73       1.0  0.8897348739537622  0.9724882684524533  0.9882980408261552  1.0000
  H   H74       1.0  0.110265125860755  0.4724882683051641  0.5117019594965467  1.0000
  H   H75       1.0  0.11026512603460527  0.027511731842125076  0.011701959381198723  1.0000
  H   H76       1.0  0.8897348741276124  0.5275117319894143  0.4882980407108071  1.0000
  H   H77       1.0  0.07773909597921942  0.33268138997797414  0.9624260149221738  1.0000
  H   H78       1.0  0.9222609038427131  0.8326813901252633  0.5375739850042351  1.0000
  H   H79       1.0  0.922260904009148  0.6673186086285936  0.03757398528518004  1.0000
  H   H80       1.0  0.0777390961530697  0.16731860848130448  0.4624260148068258  1.0000
  C   C1        1.0  0.608669331335707  0.4994491769686713  0.025965398410802476  1.0000
  C   C2        1.0  0.3913306688265107  0.9994491771159605  0.4740346016812033  1.0000
  C   C3        1.0  0.39133066865266036  0.5005508233259072  0.9740346017965514  1.0000
  C   C4        1.0  0.6086693311692722  0.0005508231786179544  0.5259653981298575  1.0000
  C   C5        1.0  0.5275998707190742  0.3364355694384616  0.03728725128926824  1.0000
  C   C6        1.0  0.4724001294431434  0.8364355695857508  0.46271274880273755  1.0000
  C   C7        1.0  0.4724001292692932  0.6635644308561168  0.9627127489180858  1.0000
  C   C8        1.0  0.527599870545224  0.1635644307088276  0.5372872514046163  1.0000
  C   C9        1.0  0.5843240429560936  0.6690445386977061  0.9881811508545493  1.0000
  C   C10       1.0  0.41567595686583897  0.16904453855041693  0.5118188490718597  1.0000
  C   C11       1.0  0.41567595703968935  0.3309554615968723  0.011818848956511667  1.0000
  C   C12       1.0  0.5843240431299438  0.8309554617441615  0.48818115073920115  1.0000
  C   C13       1.0  0.7742702315323442  0.19287375204601453  0.13698365550081992  1.0000
  C   C14       1.0  0.22572976862987343  0.6928737521933037  0.3630163445911858  1.0000
  C   C15       1.0  0.22572976845602322  0.8071262482485638  0.863016344706534  1.0000
  C   C16       1.0  0.7742702313659096  0.30712624810127465  0.6369836552198751  1.0000
  C   C17       1.0  0.7162013185023356  0.45794842189748924  0.061755185326965036  1.0000
  C   C18       1.0  0.2837986807985835  0.9579484220447785  0.43824481471732735  1.0000
  C   C19       1.0  0.2837986814934472  0.5420515767090786  0.9382448144840958  1.0000
  C   C20       1.0  0.7162013191897839  0.04205157656178937  0.5617551854900265  1.0000
  C   C21       1.0  0.768448295949886  0.24851637632997323  0.19102494221007965  1.0000
  C   C22       1.0  0.2315517033510332  0.7485163764772624  0.3089750578342128  1.0000
  C   C23       1.0  0.23155170404589695  0.7514836239646051  0.8089750576009812  1.0000
  C   C24       1.0  0.7684482966373342  0.251483623817316  0.6910249423731412  1.0000
  C   C25       1.0  0.8581633054421339  0.047817359941135  0.12090187660077015  1.0000
  C   C26       1.0  0.14183669386620065  0.5478173600884242  0.37909812304722934  1.0000
  C   C27       1.0  0.14183669455364892  0.9521826403534434  0.8790981232102908  1.0000
  C   C28       1.0  0.8581633061295822  0.4521826402061542  0.6209018767638317  1.0000
  C   C29       1.0  0.5824125374152894  0.18775683487689893  0.08035431873030452  1.0000
  C   C30       1.0  0.41758746275434383  0.6877568350241882  0.4196456809654083  1.0000
  C   C31       1.0  0.4175874625804935  0.8122431654176795  0.9196456810807564  1.0000
  C   C32       1.0  0.582412537241439  0.31224316527039025  0.5803543188456526  1.0000
  C   C33       1.0  0.6807934924350273  0.4090935684419339  0.2123369721662834  1.0000
  C   C34       1.0  0.3192065077271904  0.9090935685892231  0.28766302792572246  1.0000
  C   C35       1.0  0.3192065075533401  0.5909064318526445  0.7876630280410706  1.0000
  C   C36       1.0  0.6807934922685925  0.09090643170535527  0.7123369718853385  1.0000
  C   C37       1.0  0.8477571438389165  0.1351941851160959  0.2277639581817556  1.0000
  C   C38       1.0  0.15224285632330106  0.6351941852633851  0.2722360419102502  1.0000
  C   C39       1.0  0.15224285614945077  0.8648058151784825  0.7722360420255985  1.0000
  C   C40       1.0  0.8477571436650663  0.3648058150311933  0.7277639582971036  1.0000
  C   C41       1.0  0.9305466700154377  0.9875049677262867  0.21228705776136128  1.0000
  C   C42       1.0  0.06945333015419553  0.48750496757899753  0.28771294193435154  1.0000
  C   C43       1.0  0.06945332998034524  0.01249503256829171  0.7877129420496997  1.0000
  C   C44       1.0  0.9305466698415874  0.5124950310275703  0.7122870578767094  1.0000
  C   C45       1.0  0.640539868777197  0.6045622434774662  0.17448124609949575  1.0000
  C   C46       1.0  0.35946013138502064  0.10456224333017702  0.32551875399251  1.0000
  C   C47       1.0  0.3594601312111703  0.39543775681711213  0.8255187541078582  1.0000
  C   C48       1.0  0.6405398686107623  0.8954377569644014  0.6744812458185508  1.0000
  C   C49       1.0  0.5764089182849098  0.26643561320483605  0.22394433517494133  1.0000
  C   C50       1.0  0.4235910818773079  0.7664356133521252  0.27605566491706446  1.0000
  C   C51       1.0  0.42359108170345755  0.7335643870897424  0.7760556650324126  1.0000
  C   C52       1.0  0.576408918118475  0.23356438694245316  0.7239443348939963  1.0000
  C   C53       1.0  0.7327353966347517  0.5199054043092936  0.2649905578943734  1.0000
  C   C54       1.0  0.2672646035274659  0.019905405850014997  0.23500944219763237  1.0000
  C   C55       1.0  0.2672646033536157  0.4800945942972742  0.7350094423129805  1.0000
  C   C56       1.0  0.7327353964683169  0.9800945944445635  0.7649905576134285  1.0000
  C   C57       1.0  0.9379777927992228  0.9456567441133502  0.15839896818247937  1.0000
  C   C58       1.0  0.06202220736299493  0.445656743966061  0.34160103190952645  1.0000
  C   C59       1.0  0.062022207196560125  0.05434325618122821  0.8416010316285816  1.0000
  C   C60       1.0  0.9379777926253724  0.5543432563285174  0.6583989682978274  1.0000
  C   C61       1.0  0.9129897670593065  0.3242004364860792  0.9401180735185979  1.0000
  C   C62       1.0  0.08701023276262616  0.8242004366333684  0.5598819264078111  1.0000
  C   C63       1.0  0.08701023292906097  0.6757995621204885  0.05988192668875593  1.0000
  C   C64       1.0  0.9129897672331566  0.17579956366121  0.44011807340324993  1.0000
  C   C65       1.0  0.810968310184175  0.200462269526305  0.9428066551321754  1.0000
  C   C66       1.0  0.18903169049905597  0.7004622679855836  0.557193344841947  1.0000
  C   C67       1.0  0.18903168981160773  0.7995377307682734  0.05719334467888552  1.0000
  C   C68       1.0  0.8109683094893114  0.2995377306209842  0.4428066553654069  1.0000
  C   C69       1.0  0.9127662736405465  0.5127602613809513  0.9069092567124973  1.0000
  C   C70       1.0  0.08723372618138611  0.012760261233662123  0.5930907432139116  1.0000
  C   C71       1.0  0.08723372634782091  0.4872397389136271  0.09309074349485653  1.0000
  C   C72       1.0  0.9127662738143968  0.9872397390609163  0.40690925659714927  1.0000
  C   C73       1.0  0.709762074895358  0.26577266898621027  0.9120140901355193  1.0000
  C   C74       1.0  0.2902379249265746  0.7657726691334995  0.5879859097908896  1.0000
  C   C75       1.0  0.2902379250930094  0.734227331308368  0.0879859100718345  1.0000
  C   C76       1.0  0.7097620750692083  0.23422733116107894  0.41201409002017125  1.0000
  C   C77       1.0  0.8109279361497256  0.5787115241928366  0.8765421391582199  1.0000
  C   C78       1.0  0.18907206367220702  0.07871152404554745  0.6234578607681891  1.0000
  C   C79       1.0  0.1890720638386418  0.4212884761017418  0.12345786104913403  1.0000
  C   C80       1.0  0.8109279363235758  0.921288476249031  0.37654213904287176  1.0000
  C   C81       1.0  0.7098095045157364  0.4555211875688883  0.8790036282285697  1.0000
  C   C82       1.0  0.2901904953061962  0.9555211877161776  0.6209963716978393  1.0000
  C   C83       1.0  0.29019049548004644  0.5444788127256901  0.12099637158249114  1.0000
  C   C84       1.0  0.7098095046821712  0.04447881257840087  0.37900362850951463  1.0000
  N   N1        1.0  0.693270111650691  0.2787696956505222  0.09496346963951927  1.0000
  N   N2        1.0  0.30672988851152666  0.7787696957978113  0.40503653045248655  1.0000
  N   N3        1.0  0.3067298883376764  0.7212303029560456  0.9050365305678347  1.0000
  N   N4        1.0  0.6932701114842562  0.22123030449676703  0.5949634693585744  1.0000
  O   O1        1.0  0.8084248438140643  0.5587326966338069  0.06450619465449631  1.0000
  O   O2        1.0  0.19157515634815322  0.05873269648651764  0.4354938054375095  1.0000
  O   O3        1.0  0.19157515617430296  0.4412673036607716  0.9354938055528575  1.0000
  O   O4        1.0  0.8084248436476298  0.9412673038080608  0.5645061943735514  1.0000
  O   O5        1.0  0.5426560401900881  0.021397266241404273  0.10031059266276815  1.0000
  O   O6        1.0  0.45734395997212957  0.5213972663886934  0.39968940742923764  1.0000
  O   O7        1.0  0.45734395980569476  0.9786027340531742  0.8996894071482928  1.0000
  O   O8        1.0  0.5426560400162378  0.4786027339058849  0.6003105927781163  1.0000
  O   O9        1.0  0.8100959479644899  0.016799631772863987  0.9758538850308891  1.0000
  O   O10       1.0  0.18990405271874117  0.5167996319201532  0.5241461149432334  1.0000
  O   O11       1.0  0.1899040520312929  0.9832003685217143  0.0241461147801719  1.0000
  O   O12       1.0  0.8100959472696263  0.4832003683744252  0.47585388526412054  1.0000
  O   O13       1.0  0.009169316622282049  0.24863974120858112  0.9714726961598876  1.0000
  O   O14       1.0  0.9908306831996505  0.7486397413558703  0.5285273037665215  1.0000
  O   O15       1.0  0.9908306833735009  0.7513602590859972  0.028527303651173334  1.0000
  O   O16       1.0  0.009169316796132334  0.2513602589387081  0.4714726960445395  1.0000
