data_image0
_chemical_formula_structural       H48C72N8O4Cl8
_chemical_formula_sum              "H48 C72 N8 O4 Cl8"
_cell_length_a       10.336176862970408
_cell_length_b       12.030024190483426
_cell_length_c       13.094602135596366
_cell_angle_alpha    90.0
_cell_angle_beta     113.36476549348693
_cell_angle_gamma    90.0

_space_group_name_H-M_alt    "P 1"
_space_group_IT_number       1

loop_
  _space_group_symop_operation_xyz
  'x, y, z'

loop_
  _atom_site_type_symbol
  _atom_site_label
  _atom_site_symmetry_multiplicity
  _atom_site_fract_x
  _atom_site_fract_y
  _atom_site_fract_z
  _atom_site_occupancy
  H   H1        1.0  0.26501454587914913  0.018573902800358453  0.3900390801583681  1.0000
  H   H2        1.0  0.2349854540264576  0.5185739031958928  0.10996091937611975  1.0000
  H   H3        1.0  0.7349854543463135  0.9814260971594567  0.609960919742491  1.0000
  H   H4        1.0  0.765014546199005  0.48142609676392234  0.8900390805247392  1.0000
  H   H5        1.0  0.17441178165227536  0.03368343351466832  0.18297527441093014  1.0000
  H   H6        1.0  0.32558821728426185  0.5336834330789492  0.31702472512037133  1.0000
  H   H7        1.0  0.8255882176041178  0.9663165664451469  0.8170247254867425  1.0000
  H   H8        1.0  0.6744117819721313  0.466316566880866  0.6829752747773014  1.0000
  H   H9        1.0  0.25368216444754005  0.19246338937801907  0.09836885448383148  1.0000
  H   H10       1.0  0.24631783587231595  0.6924633889422999  0.40163114588253984  1.0000
  H   H11       1.0  0.7463178361921718  0.807536610581796  0.901631146248911  1.0000
  H   H12       1.0  0.7536821633840772  0.3075366110175153  0.598368854015133  1.0000
  H   H13       1.0  0.5793272601590356  0.3811254688604042  0.422562549937531  1.0000
  H   H14       1.0  0.9206727399677082  0.8811254684246851  0.0774374503071675  1.0000
  H   H15       1.0  0.4206727400664272  0.6188745310994109  0.5774374499633281  1.0000
  H   H16       1.0  0.07932726025775463  0.11887453153513011  0.9225625495936918  1.0000
  H   H17       1.0  0.6133364834414579  0.5943919219760652  0.4419572322844993  1.0000
  H   H18       1.0  0.8866635166852858  0.09439192158053081  0.058042767960199235  1.0000
  H   H19       1.0  0.38666351581493535  0.40560807881500355  0.5580427676131735  1.0000
  H   H20       1.0  0.1133364835401768  0.9056080783792844  0.9419572319406598  1.0000
  H   H21       1.0  0.7777127647838291  0.7243245592883419  0.4036715626616246  1.0000
  H   H22       1.0  0.7222872353429146  0.2243245597240612  0.09632843758307377  1.0000
  H   H23       1.0  0.22228723488681312  0.27567544067147315  0.5963284380679313  1.0000
  H   H24       1.0  0.2777127648825482  0.775675440235754  0.9036715623177853  1.0000
  H   H25       1.0  0.9643005321056093  0.6449127796548706  0.3471726574928591  1.0000
  H   H26       1.0  0.5356994676068852  0.1449127800905898  0.15282734191995595  1.0000
  H   H27       1.0  0.035699467150783926  0.35508722030494455  0.6528273424048137  1.0000
  H   H28       1.0  0.46430053261857746  0.8550872198692253  0.8471726579809031  1.0000
  H   H29       1.0  0.07942759213844532  0.4770563258334877  0.30831949280656357  1.0000
  H   H30       1.0  0.4205724081814106  0.9770563253977685  0.19168050755980767  1.0000
  H   H31       1.0  0.9205724080870172  0.5229436741263275  0.6916805070942955  1.0000
  H   H32       1.0  0.579427592044052  0.022943674562046615  0.8083194923410514  1.0000
  H   H33       1.0  0.10610387047730821  0.2729648052243894  0.310444927737609  1.0000
  H   H34       1.0  0.3938961298425477  0.7729648047886702  0.1895550726287622  1.0000
  H   H35       1.0  0.8938961297481545  0.7270351947354258  0.6895550721632501  1.0000
  H   H36       1.0  0.6061038707971641  0.227035195171145  0.8104449281039803  1.0000
  H   H37       1.0  0.03151536320451051  0.08554004162469168  0.34871318050198696  1.0000
  H   H38       1.0  0.4684846371153454  0.585540042020226  0.1512868198643843  1.0000
  H   H39       1.0  0.9684846370209521  0.9144599583351235  0.6512868193988721  1.0000
  H   H40       1.0  0.5315153631101172  0.4144599579395891  0.8487131800364748  1.0000
  H   H41       1.0  0.8603012245083326  0.969634892274581  0.39645162221117036  1.0000
  H   H42       1.0  0.6396987756184112  0.4696348918790468  0.10354837803352805  1.0000
  H   H43       1.0  0.1396987757171301  0.03036510851648759  0.6035483776896887  1.0000
  H   H44       1.0  0.3603012246070515  0.5303651080807684  0.896451621867331  1.0000
  H   H45       1.0  0.6641246131057454  0.06606419466959218  0.4273284131207563  1.0000
  H   H46       1.0  0.8358753870209983  0.566064194233873  0.0726715871239422  1.0000
  H   H47       1.0  0.33587538711971726  0.933935805290223  0.5726715867801029  1.0000
  H   H48       1.0  0.16412461264964404  0.43393580572594215  0.9273284136056139  1.0000
  C   C1        1.0  0.42552442385307243  0.26457331004519774  0.3740573671602985  1.0000
  C   C2        1.0  0.07447557605253435  0.7645733096094786  0.12594263237418934  1.0000
  C   C3        1.0  0.5744755763723902  0.7354266899146175  0.6259426327405605  1.0000
  C   C4        1.0  0.9255244241729282  0.23542669035033661  0.8740573675266697  1.0000
  C   C5        1.0  0.3816949318962584  0.1715793449220865  0.4183071517611702  1.0000
  C   C6        1.0  0.11830506842359753  0.6715793444863674  0.08169284860520104  1.0000
  C   C7        1.0  0.6183050683292043  0.8284206550377285  0.5816928481396889  1.0000
  C   C8        1.0  0.8816949322161143  0.32842065547344784  0.9183071521275414  1.0000
  C   C9        1.0  0.294602616169677  0.0888072004747206  0.35139678315791695  1.0000
  C   C10       1.0  0.20539738415017894  0.588807200870255  0.1486032172084543  1.0000
  C   C11       1.0  0.7053973830867163  0.9111927994850946  0.6486032167397559  1.0000
  C   C12       1.0  0.794602616489533  0.41119279908956025  0.8513967835242883  1.0000
  C   C13       1.0  0.2458034714392643  0.0964696106694499  0.23584521156779045  1.0000
  C   C14       1.0  0.25419652846634244  0.5964696110649843  0.2641547879666974  1.0000
  C   C15       1.0  0.7541965287861983  0.9035303892903653  0.7641547883330686  1.0000
  C   C16       1.0  0.7458034717591202  0.40353038889483095  0.7358452119341616  1.0000
  C   C17       1.0  0.29029525094663966  0.18440787357309985  0.188303923238172  1.0000
  C   C18       1.0  0.20970474937321626  0.6844078739686341  0.31169607712819924  1.0000
  C   C19       1.0  0.7097047492788229  0.8155921263867153  0.8116960766626871  1.0000
  C   C20       1.0  0.7902952512664955  0.31559212599118097  0.6883039236045433  1.0000
  C   C21       1.0  0.3809911316551226  0.26433629555920396  0.2568999915282053  1.0000
  C   C22       1.0  0.11900886825048416  0.7643362959547383  0.24310000800628254  1.0000
  C   C23       1.0  0.61900886857034  0.7356637044006112  0.7431000083726537  1.0000
  C   C24       1.0  0.8809911319749785  0.23566370400507683  0.7568999918945765  1.0000
  C   C25       1.0  0.6969731095094263  0.5622526258385016  0.41901871091687815  1.0000
  C   C26       1.0  0.8030268906173174  0.06225262627422078  0.08098128932782034  1.0000
  C   C27       1.0  0.30302689071603645  0.4377473741213136  0.580981288983981  1.0000
  C   C28       1.0  0.19697310960814524  0.9377473736855944  0.9190187105730387  1.0000
  C   C29       1.0  0.789466949567796  0.6350127380494502  0.39704998522464796  1.0000
  C   C30       1.0  0.7105330505589477  0.13501273848516937  0.10295001502005048  1.0000
  C   C31       1.0  0.21053305065766673  0.364987261910365  0.6029500146762111  1.0000
  C   C32       1.0  0.2894669486974453  0.8649872614746458  0.8970499848776221  1.0000
  C   C33       1.0  0.8920867105973405  0.5911604671273915  0.36641947880098674  1.0000
  C   C34       1.0  0.6079132895294033  0.0911604675631106  0.1335805214437117  1.0000
  C   C35       1.0  0.10791328962812223  0.40883953283242375  0.6335805210998723  1.0000
  C   C36       1.0  0.39208671069605944  0.9088395323967046  0.8664194784571474  1.0000
  C   C37       1.0  0.9038854601964921  0.4745588512212781  0.3599040863646051  1.0000
  C   C38       1.0  0.5961145395160022  0.9745588507855589  0.14009591304821004  1.0000
  C   C39       1.0  0.0961145400289705  0.525441148738537  0.6400959135362541  1.0000
  C   C40       1.0  0.4038854607094603  0.025441149174256245  0.8599040868526491  1.0000
  C   C41       1.0  0.00911461314832145  0.4236832361510971  0.33013978529685734  1.0000
  C   C42       1.0  0.49088538717153446  0.9236832365466314  0.1698602150695139  1.0000
  C   C43       1.0  0.9908853870771411  0.576316763808718  0.6698602146040017  1.0000
  C   C44       1.0  0.5091146130539281  0.07631676341318368  0.8301397848313452  1.0000
  C   C45       1.0  0.02374238488372282  0.31085678139851886  0.3311630814174601  1.0000
  C   C46       1.0  0.4762576154361331  0.8108567817940532  0.16883691894891115  1.0000
  C   C47       1.0  0.9762576153417399  0.6891432185612962  0.668836918483399  1.0000
  C   C48       1.0  0.52374238382026  0.18914321816576193  0.8311630809487615  1.0000
  C   C49       1.0  0.9323394339769474  0.24027459997018055  0.3602896896108761  1.0000
  C   C50       1.0  0.5676605657355469  0.7402746003657149  0.13971030980193896  1.0000
  C   C51       1.0  0.06766056527944565  0.7597253999896346  0.6397103102867966  1.0000
  C   C52       1.0  0.4323394344899157  0.25972539959410024  0.8602896900989201  1.0000
  C   C53       1.0  0.9467556165917203  0.12345551567343262  0.36616447035830296  1.0000
  C   C54       1.0  0.5532443831207743  0.6234555152377134  0.1338355290545121  1.0000
  C   C55       1.0  0.053244383633742454  0.8765444842863825  0.6338355295425561  1.0000
  C   C56       1.0  0.4467556161356189  0.3765444847221017  0.8661644708431606  1.0000
  C   C57       1.0  0.8524913630317977  0.05998173807254857  0.39194946705355155  1.0000
  C   C58       1.0  0.6475086370949458  0.559981738468083  0.1080505331911469  1.0000
  C   C59       1.0  0.14750863760791405  0.9400182618872666  0.6080505336791909  1.0000
  C   C60       1.0  0.3524913631305168  0.44001826149173223  0.8919494667097122  1.0000
  C   C61       1.0  0.7429290424860225  0.11432138690859392  0.4102599973005443  1.0000
  C   C62       1.0  0.7570709576407211  0.6143213864728747  0.08974000294415413  1.0000
  C   C63       1.0  0.2570709581536892  0.8856786130512212  0.5897400034321981  1.0000
  C   C64       1.0  0.2429290416156722  0.3856786134869404  0.9102599969535187  1.0000
  C   C65       1.0  0.8210781678175402  0.2871227052670788  0.38459101068791424  1.0000
  C   C66       1.0  0.6789218323092033  0.7871227048313596  0.1154089895567842  1.0000
  C   C67       1.0  0.17892183143885296  0.7128772946927364  0.6154089892097585  1.0000
  C   C68       1.0  0.32107816833050834  0.2128772951284556  0.8845910111759582  1.0000
  C   C69       1.0  0.8080335246791843  0.4070329961492148  0.38601348990656403  1.0000
  C   C70       1.0  0.6919664750333102  0.9070329957134956  0.11398650950625105  1.0000
  C   C71       1.0  0.1919664755462783  0.5929670038106004  0.613986509994295  1.0000
  C   C72       1.0  0.30803352519215244  0.0929670042463196  0.8860134903946079  1.0000
  N   N1        1.0  0.7056910229167771  0.45219512894274555  0.41369729569116853  1.0000
  N   N2        1.0  0.7943089767957174  0.9521951293382799  0.08630270372164649  1.0000
  N   N3        1.0  0.294308976339616  0.5478048710170697  0.5863027042065041  1.0000
  N   N4        1.0  0.2056910234297452  0.047804870621535295  0.9136972961792125  1.0000
  N   N5        1.0  0.7277890558536475  0.22388946084835482  0.40765026606341914  1.0000
  N   N6        1.0  0.7722109442730961  0.7238894612438891  0.09234973418127931  1.0000
  N   N7        1.0  0.2722109438169948  0.7761105391114603  0.5923497346661369  1.0000
  N   N8        1.0  0.22778905595236656  0.276110538715926  0.9076502657195799  1.0000
  O   O1        1.0  0.4984670230013957  0.34644611299260564  0.4413367103070919  1.0000
  O   O2        1.0  0.0015329773184602875  0.84644611338814  0.05866329005927944  1.0000
  O   O3        1.0  0.501532977224067  0.6535538869672095  0.5586632895937673  1.0000
  O   O4        1.0  0.9984670229070025  0.15355388657167515  0.9413367098415797  1.0000
  Cl  Cl1       1.0  0.44035192450002403  0.16036729016107443  0.5616482855933856  1.0000
  Cl  Cl2       1.0  0.05964807623840674  0.6603672905566088  0.9383517147955174  1.0000
  Cl  Cl3       1.0  0.5596480761396878  0.8396327097987407  0.4383517151393567  1.0000
  Cl  Cl4       1.0  0.9403519239870558  0.3396327102344599  0.0616482851053417  1.0000
  Cl  Cl5       1.0  0.443980709107198  0.3673281524650388  0.19607629366236837  1.0000
  Cl  Cl6       1.0  0.056019290798408776  0.8673281520293196  0.3039237058721195  1.0000
  Cl  Cl7       1.0  0.5560192911182646  0.6326718474947765  0.8039237062384906  1.0000
  Cl  Cl8       1.0  0.9439807094270538  0.13267184793049558  0.6960762940287397  1.0000
