data_image0
_chemical_formula_structural       H32C44N4O4Cl8
_chemical_formula_sum              "H32 C44 N4 O4 Cl8"
_cell_length_a       10.199888847784033
_cell_length_b       7.316854543647805
_cell_length_c       14.18209922491739
_cell_angle_alpha    90.0
_cell_angle_beta     104.34123671330205
_cell_angle_gamma    90.0

_space_group_name_H-M_alt    "P 1"
_space_group_IT_number       1

loop_
  _space_group_symop_operation_xyz
  'x, y, z'

loop_
  _atom_site_type_symbol
  _atom_site_label
  _atom_site_symmetry_multiplicity
  _atom_site_fract_x
  _atom_site_fract_y
  _atom_site_fract_z
  _atom_site_occupancy
  H   H1        1.0  0.27868121433975296  0.8181437111110823  0.20801605670706044  1.0000
  H   H2        1.0  0.2213187857662094  0.3181437113603564  0.2919839430405314  1.0000
  H   H3        1.0  0.7213187861297379  0.1818562897570769  0.7919839435158991  1.0000
  H   H4        1.0  0.7786812144457153  0.6818562895078027  0.7080160564546523  1.0000
  H   H5        1.0  0.06390995610734507  0.9242490020347622  0.09500469768772239  1.0000
  H   H6        1.0  0.4360900432775739  0.4242490022840364  0.40499530279278173  1.0000
  H   H7        1.0  0.9360900433835364  0.07575099746668944  0.9049953025403735  1.0000
  H   H8        1.0  0.5639099562133073  0.5757509972174153  0.5950046974353141  1.0000
  H   H9        1.0  0.05088838768349074  0.24253847051540084  0.02739282167175271  1.0000
  H   H10       1.0  0.4491116126800377  0.7425384702661267  0.4726071788036149  1.0000
  H   H11       1.0  0.9491116127860001  0.7574615303527583  0.9726071785512066  1.0000
  H   H12       1.0  0.550888387789453  0.257461529235325  0.5273928214193445  1.0000
  H   H13       1.0  0.5649663568259499  0.33646954785199606  0.24263044334752953  1.0000
  H   H14       1.0  0.9350336429238685  0.836469547602722  0.25736955678805146  1.0000
  H   H15       1.0  0.4350336426649315  0.6635304530161631  0.7573695568805664  1.0000
  H   H16       1.0  0.06496635754562236  0.1635304532654373  0.7426304434349081  1.0000
  H   H17       1.0  0.7874600012020353  0.1091778379950875  0.3292497873410964  1.0000
  H   H18       1.0  0.7125399995263922  0.6091778377458134  0.17075021278934818  1.0000
  H   H19       1.0  0.21253999926745543  0.8908221628730717  0.6707502128818632  1.0000
  H   H20       1.0  0.2874600009430984  0.3908221631223459  0.8292497874336112  1.0000
  H   H21       1.0  0.9975203817135583  0.18823508541600106  0.4488437147039768  1.0000
  H   H22       1.0  0.5024796177786938  0.6882350865334343  0.05115628470382836  1.0000
  H   H23       1.0  0.00247961751975683  0.8117649140854506  0.5511562847963433  1.0000
  H   H24       1.0  0.4975203824332309  0.31176491433472486  0.9488437147913552  1.0000
  H   H25       1.0  0.83820926991551  0.7372182196355064  0.45144904947067604  1.0000
  H   H26       1.0  0.6617907298343082  0.23721821988478045  0.048550950664904946  1.0000
  H   H27       1.0  0.16179073055398077  0.2627817798659454  0.5485509507522834  1.0000
  H   H28       1.0  0.3382092696565731  0.7627817796166713  0.951449049563191  1.0000
  H   H29       1.0  0.6329111783703035  0.6309303201889933  0.3314154277083848  1.0000
  H   H30       1.0  0.8670888211219486  0.1309303204382674  0.1685845716994204  1.0000
  H   H31       1.0  0.36708882086301164  0.3690696793124585  0.6685845717919353  1.0000
  H   H32       1.0  0.1329111790899761  0.8690696804298919  0.8314154277957634  1.0000
  C   C1        1.0  0.3789664930229485  0.2514570132595165  0.1653908672437606  1.0000
  C   C2        1.0  0.1210335063619705  0.7514570130102424  0.33460913323674346  1.0000
  C   C3        1.0  0.6210335064679328  0.7485429862419352  0.8346091329843353  1.0000
  C   C4        1.0  0.8789664931289107  0.24854298649120932  0.6653908669913524  1.0000
  C   C5        1.0  0.3809124188130022  0.07288164426651865  0.2040563991429143  1.0000
  C   C6        1.0  0.11908758129296011  0.5728816440172445  0.29594360060467756  1.0000
  C   C7        1.0  0.6190875806778791  0.9271183552349331  0.7959436010851816  1.0000
  C   C8        1.0  0.8809124189189644  0.42711835548420723  0.704056398890506  1.0000
  C   C9        1.0  0.2704119926104943  0.955397837731908  0.17766814230686073  1.0000
  C   C10       1.0  0.2295880077530341  0.4553978379811822  0.3223318581685069  1.0000
  C   C11       1.0  0.7295880078589964  0.04460216313625116  0.8223318579160988  1.0000
  C   C12       1.0  0.7704119917378471  0.544602162886977  0.6776681420595889  1.0000
  C   C13       1.0  0.15128414283375627  0.014584528004953135  0.11374268544484192  1.0000
  C   C14       1.0  0.348715857272206  0.514584527755679  0.38625731430274984  1.0000
  C   C15       1.0  0.8487158563995589  0.9854154728632062  0.8862573140554781  1.0000
  C   C16       1.0  0.6512841431972847  0.48541547311248023  0.6137426859202095  1.0000
  C   C17       1.0  0.14362692144213482  0.19102682876393104  0.07567936357994248  1.0000
  C   C18       1.0  0.35637307768521803  0.6910268298813644  0.4243206361727857  1.0000
  C   C19       1.0  0.8563730777911804  0.8089731707375207  0.9243206359203775  1.0000
  C   C20       1.0  0.6436269218056633  0.30897317098679483  0.5756793640553102  1.0000
  C   C21       1.0  0.25566346946905627  0.30559576887327955  0.10080954344271166  1.0000
  C   C22       1.0  0.244336530636906  0.8055957686240054  0.39919045630488015  1.0000
  C   C23       1.0  0.7443365310004344  0.6944042319948797  0.8991904567802478  1.0000
  C   C24       1.0  0.7556634685964092  0.19440423087744632  0.6008095431954399  1.0000
  C   C25       1.0  0.802303754687145  0.2472588718564368  0.35849512120258625  1.0000
  C   C26       1.0  0.6976962448051073  0.7472588716071626  0.1415048782052189  1.0000
  C   C27       1.0  0.19769624552477982  0.7527411290117224  0.6415048782925974  1.0000
  C   C28       1.0  0.30230375442820795  0.25274112926099657  0.8584951212951012  1.0000
  C   C29       1.0  0.9206538104931048  0.29333045329748864  0.4265322823614753  1.0000
  C   C30       1.0  0.5793461902353227  0.7933304530482145  0.07346771776896929  1.0000
  C   C31       1.0  0.07934618971881971  0.7066695475706706  0.5734677171337084  1.0000
  C   C32       1.0  0.42065381023416804  0.20666954781994473  0.9265322824539902  1.0000
  C   C33       1.0  0.9380789847532507  0.47202974849328183  0.46358547338496703  1.0000
  C   C34       1.0  0.5619210149965674  0.9720297482440077  0.03641452675061396  1.0000
  C   C35       1.0  0.06192101571624  0.5279702510081699  0.5364145268379924  1.0000
  C   C36       1.0  0.4380789844943138  0.02797025125744402  0.9635854734774819  1.0000
  C   C37       1.0  0.8321203143747969  0.5956273155359554  0.42773769941018663  1.0000
  C   C38       1.0  0.6678796853750213  0.0956273157852295  0.07226230072539437  1.0000
  C   C39       1.0  0.16787968511608434  0.4043726839654963  0.5722623008179093  1.0000
  C   C40       1.0  0.33212031411586  0.9043726837162223  0.9277376995027015  1.0000
  C   C41       1.0  0.7167811072148786  0.537468951520173  0.36005676540088166  1.0000
  C   C42       1.0  0.7832188925349396  0.03746895176944717  0.1399432347346993  1.0000
  C   C43       1.0  0.28321889227600267  0.4625310479812787  0.6399432348272142  1.0000
  C   C44       1.0  0.21678110793455113  0.9625310477320046  0.8600567654882602  1.0000
  N   N1        1.0  0.7010897356718696  0.36604829083628704  0.32537505796145416  1.0000
  N   N2        1.0  0.7989102650565582  0.8660482905870128  0.17462494216899038  1.0000
  N   N3        1.0  0.2989102647976211  0.6339517100318721  0.6746249422615053  1.0000
  N   N4        1.0  0.20108973541293274  0.13395170891443883  0.8253750580539692  1.0000
  O   O1        1.0  0.48236069490573547  0.3688695427659049  0.18506794654207084  1.0000
  O   O2        1.0  0.017639305200226878  0.8688695425166307  0.314932053205521  1.0000
  O   O3        1.0  0.5176393045851458  0.6311304567355468  0.8149320536860251  1.0000
  O   O4        1.0  0.9823606950116978  0.13113045698482093  0.6850679462896626  1.0000
  Cl  Cl1       1.0  0.5232232013168834  0.9982657515504635  0.28938495964098454  1.0000
  Cl  Cl2       1.0  0.9767767984329349  0.49826575179973764  0.2106150404945964  1.0000
  Cl  Cl3       1.0  0.4767767991526073  0.0017342479509882126  0.7106150405819749  1.0000
  Cl  Cl4       1.0  0.02322320105794655  0.501734247701714  0.7893849597334995  1.0000
  Cl  Cl5       1.0  0.24289575003244304  0.5259261403987845  0.054895617658320614  1.0000
  Cl  Cl6       1.0  0.2571042500735193  0.025926140648058652  0.4451043820892712  1.0000
  Cl  Cl7       1.0  0.7571042504370477  0.4740738591026672  0.9451043825646388  1.0000
  Cl  Cl8       1.0  0.7428957491597958  0.9740738588533931  0.5548956174110488  1.0000
