data_image0
_chemical_formula_structural       H32C44N4O4Cl8
_chemical_formula_sum              "H32 C44 N4 O4 Cl8"
_cell_length_a       5.812307060543463
_cell_length_b       14.173234230849465
_cell_length_c       12.398637493315972
_cell_angle_alpha    90.0
_cell_angle_beta     98.50733747225343
_cell_angle_gamma    90.0

_space_group_name_H-M_alt    "P 1"
_space_group_IT_number       1

loop_
  _space_group_symop_operation_xyz
  'x, y, z'

loop_
  _atom_site_type_symbol
  _atom_site_label
  _atom_site_symmetry_multiplicity
  _atom_site_fract_x
  _atom_site_fract_y
  _atom_site_fract_z
  _atom_site_occupancy
  H   H1        1.0  0.8311153450799388  0.4197578522374727  0.2515709264521911  1.0000
  H   H2        1.0  0.16888465515548107  0.9197578518547279  0.24842907328524844  1.0000
  H   H3        1.0  0.1688846546014026  0.5802421477025929  0.7484290728670723  1.0000
  H   H4        1.0  0.8311153447878264  0.0802421480853377  0.7515709268495253  1.0000
  H   H5        1.0  0.5885386727887306  0.31470383240344363  0.3498980779717373  1.0000
  H   H6        1.0  0.41146132744668923  0.814703832726254  0.1501019217657022  1.0000
  H   H7        1.0  0.4114613271545769  0.6852961675366219  0.6501019221630363  1.0000
  H   H8        1.0  0.5885386724966183  0.18529616721381156  0.8498980783690715  1.0000
  H   H9        1.0  0.14870307682607417  0.552631365038166  0.39892260156511394  1.0000
  H   H10       1.0  0.8512969234093457  0.05263136471535556  0.10107739817232564  1.0000
  H   H11       1.0  0.8512969228552671  0.4473686356074548  0.6010773977541494  1.0000
  H   H12       1.0  0.14870307653396178  0.94736863522471  0.898922601962448  1.0000
  H   H13       1.0  0.2597939507863721  0.700765065208742  0.3321250042709502  1.0000
  H   H14       1.0  0.740206049711014  0.20076506488593163  0.16787499628199976  1.0000
  H   H15       1.0  0.7402060491569354  0.2992349347313235  0.6678749958638234  1.0000
  H   H16       1.0  0.2597939502322936  0.7992349350541339  0.832125003852774  1.0000
  H   H17       1.0  0.4564607940642883  0.7880812303015579  0.4910219596945293  1.0000
  H   H18       1.0  0.5435392064330978  0.2880812306843027  0.008978040858420775  1.0000
  H   H19       1.0  0.5435392058790193  0.21191876963850773  0.5089780404402445  1.0000
  H   H20       1.0  0.45646079351020974  0.7119187692557629  0.991021959276353  1.0000
  H   H21       1.0  0.3783552742595152  0.9433188058727711  0.5677193037381312  1.0000
  H   H22       1.0  0.6216447251297138  0.44331880554996067  0.9322806959784663  1.0000
  H   H23       1.0  0.6216447254218262  0.05668119406729451  0.4322806955811321  1.0000
  H   H24       1.0  0.37835527481359366  0.5566811943901049  0.06771930415630746  1.0000
  H   H25       1.0  0.6897175818892066  0.9297443184363584  0.37883615632663536  1.0000
  H   H26       1.0  0.31028241860817946  0.429744318113548  0.12116384422631464  1.0000
  H   H27       1.0  0.31028241805410095  0.07025568150370716  0.6211638438081384  1.0000
  H   H28       1.0  0.6897175813351281  0.5702556818265176  0.878836155908459  1.0000
  H   H29       1.0  0.7941049558079657  0.7736909939816029  0.3142071816801176  1.0000
  H   H30       1.0  0.20589504442745415  0.2736909936587924  0.18579281805732198  1.0000
  H   H31       1.0  0.20589504413534176  0.22630900666401804  0.6857928184546561  1.0000
  H   H32       1.0  0.7941049552538872  0.7263090062812732  0.8142071812619412  1.0000
  C   C1        1.0  0.4302663448200594  0.5825020983587587  0.307653711648221  1.0000
  C   C2        1.0  0.5697336539575357  0.08250209803594824  0.1923462889069157  1.0000
  C   C3        1.0  0.5697336551232481  0.41749790158130695  0.6923462884865528  1.0000
  C   C4        1.0  0.4302663459857719  0.9174979019041174  0.807653711227858  1.0000
  C   C5        1.0  0.6227041924293668  0.5425399979111988  0.2669249437180293  1.0000
  C   C6        1.0  0.37729580780605315  0.04253999758838839  0.23307505601941025  1.0000
  C   C7        1.0  0.3772958075139408  0.4574600020288668  0.7330750564167444  1.0000
  C   C8        1.0  0.6227041921372544  0.9574600023516772  0.7669249441153635  1.0000
  C   C9        1.0  0.6796588250399526  0.4477515432707028  0.2827694558182497  1.0000
  C   C10       1.0  0.32034117545743357  0.9477515435935133  0.2172305447347003  1.0000
  C   C11       1.0  0.320341174903355  0.5522484566693628  0.717230544316524  1.0000
  C   C12       1.0  0.679658824485874  0.05224845634655237  0.7827694554000735  1.0000
  C   C13       1.0  0.545898413760395  0.3892145010905797  0.3394031661963229  1.0000
  C   C14       1.0  0.4541015864750249  0.8892145007078348  0.16059683354111665  1.0000
  C   C15       1.0  0.45410158592094635  0.610785498849486  0.6605968331229403  1.0000
  C   C16       1.0  0.5458984134682828  0.11078549923223076  0.8394031665936571  1.0000
  C   C17       1.0  0.3564441363942069  0.428677340756532  0.38024517736215313  1.0000
  C   C18       1.0  0.643555863841213  0.9286773410793424  0.1197548223752864  1.0000
  C   C19       1.0  0.6435558635491007  0.5713226591835336  0.6197548227726206  1.0000
  C   C20       1.0  0.35644413782188555  0.07132265886072314  0.8802451777573007  1.0000
  C   C21       1.0  0.29675545237874973  0.5235863529191976  0.3656148297634558  1.0000
  C   C22       1.0  0.7032445478566701  0.023586353301942448  0.1343851699739838  1.0000
  C   C23       1.0  0.7032445475645579  0.47641364702086797  0.634385170371318  1.0000
  C   C24       1.0  0.2967554520866374  0.9764136466381231  0.8656148301607899  1.0000
  C   C25       1.0  0.28711837934736184  0.8217407742157917  0.46934311380738913  1.0000
  C   C26       1.0  0.7128816208880581  0.3217407738929813  0.030656885930050413  1.0000
  C   C27       1.0  0.7128816205959457  0.17825922642982917  0.5306568863273846  1.0000
  C   C28       1.0  0.2871183807750405  0.6782592260470842  0.9693431142025366  1.0000
  C   C29       1.0  0.24284121924773158  0.9096209157355688  0.511011747950163  1.0000
  C   C30       1.0  0.7571587801414975  0.4096209154127584  0.9889882517664345  1.0000
  C   C31       1.0  0.757158780695576  0.09037908420449678  0.4889882521846107  1.0000
  C   C32       1.0  0.24284121953984392  0.5903790845273073  0.011011747552828847  1.0000
  C   C33       1.0  0.026080776454116637  0.9527652715008196  0.47953729073104995  1.0000
  C   C34       1.0  0.9739192237813034  0.45276527188356447  0.020462709006389593  1.0000
  C   C35       1.0  0.973919223489191  0.04723472843924599  0.5204627094037237  1.0000
  C   C36       1.0  0.026080776162004292  0.5472347287620564  0.9795372911283841  1.0000
  C   C37       1.0  0.8621187855422637  0.9019613259600956  0.407585714156381  1.0000
  C   C38       1.0  0.13788121495512248  0.40196132634284054  0.092414286396569  1.0000
  C   C39       1.0  0.13788121440104398  0.09803867397996989  0.5924142859783927  1.0000
  C   C40       1.0  0.8621187849881851  0.5980386743027803  0.9075857137382047  1.0000
  C   C41       1.0  0.9195329947581261  0.8138449271439626  0.3702827386473491  1.0000
  C   C42       1.0  0.08046700547729381  0.3138449268211522  0.12971726109009046  1.0000
  C   C43       1.0  0.08046700518518148  0.18615507279610294  0.6297172614874247  1.0000
  C   C44       1.0  0.9195329944660137  0.6861550731189134  0.8702827390446832  1.0000
  N   N1        1.0  0.1294390359066419  0.7740125783091997  0.399777863506085  1.0000
  N   N2        1.0  0.870560964328778  0.2740125779863892  0.10022213623135454  1.0000
  N   N3        1.0  0.8705609640366657  0.22598742163086594  0.6002221366286886  1.0000
  N   N4        1.0  0.12943903561452957  0.7259874219536764  0.8997778639034192  1.0000
  O   O1        1.0  0.38439557434938687  0.6741462015213825  0.2886460972137304  1.0000
  O   O2        1.0  0.615604425886033  0.1741462011985721  0.21135390252370911  1.0000
  O   O3        1.0  0.6156044255939207  0.32585379841868306  0.7113539029210433  1.0000
  O   O4        1.0  0.3843955740572746  0.8258537987414936  0.7886460976110646  1.0000
  Cl  Cl1       1.0  0.7904961771774909  0.6146371433725955  0.19679657213034574  1.0000
  Cl  Cl2       1.0  0.20950382305792895  0.1146371437553403  0.30320342760709384  1.0000
  Cl  Cl3       1.0  0.20950382250385044  0.38536285656747016  0.8032034271889175  1.0000
  Cl  Cl4       1.0  0.7904961768853787  0.8853628561847253  0.6967965725276799  1.0000
  Cl  Cl5       1.0  0.18790029637632755  0.35704350309722527  0.4512992741974695  1.0000
  Cl  Cl6       1.0  0.8120997021393015  0.8570435027144804  0.04870072554215676  1.0000
  Cl  Cl7       1.0  0.8120997033050139  0.6429564975483956  0.5487007251217938  1.0000
  Cl  Cl8       1.0  0.1879002978040062  0.14295649722558515  0.951299274592617  1.0000
