data_image0
_chemical_formula_structural       H16C22N2O2Cl4
_chemical_formula_sum              "H16 C22 N2 O2 Cl4"
_cell_length_a       7.331687506774386
_cell_length_b       7.822849738139248
_cell_length_c       9.362898754866057
_cell_angle_alpha    101.08659756319148
_cell_angle_beta     94.14382358263686
_cell_angle_gamma    100.00394006701302

_space_group_name_H-M_alt    "P 1"
_space_group_IT_number       1

loop_
  _space_group_symop_operation_xyz
  'x, y, z'

loop_
  _atom_site_type_symbol
  _atom_site_label
  _atom_site_symmetry_multiplicity
  _atom_site_fract_x
  _atom_site_fract_y
  _atom_site_fract_z
  _atom_site_occupancy
  H   H1        1.0  0.32000033205915945  0.5007068867216706  0.8488453500807306  1.0000
  H   H2        1.0  0.6799996677036668  0.4992931131938924  0.1511546498045816  1.0000
  H   H3        1.0  0.7120286687824489  0.2851882627638143  0.4684633337662738  1.0000
  H   H4        1.0  0.28797133113017553  0.7148117374213464  0.531536667213942  1.0000
  H   H5        1.0  0.8554207219233467  0.5167808042699469  0.6845686987219377  1.0000
  H   H6        1.0  0.14457927920282404  0.4832191956419517  0.31543130116432777  1.0000
  H   H7        1.0  0.8087256935813678  0.6923323533232468  0.9026533005978504  1.0000
  H   H8        1.0  0.19127430633125658  0.3076676468619141  0.09734670038236548  1.0000
  H   H9        1.0  0.07502033193258795  0.6545611813663216  0.09460788225006314  1.0000
  H   H10       1.0  0.9249796678302382  0.3454388185492415  0.9053921176352491  1.0000
  H   H11       1.0  0.4038837585484166  0.8013007625514628  0.1559227349725629  1.0000
  H   H12       1.0  0.5961162412144096  0.19869923736410047  0.8440772649127493  1.0000
  H   H13       1.0  0.3364839574599695  0.06319167241300792  0.7926580414875186  1.0000
  H   H14       1.0  0.6635160438159993  0.9368083277684883  0.20734195949365042  1.0000
  H   H15       1.0  0.0122514786141969  0.8978876261518104  0.7433484482411388  1.0000
  H   H16       1.0  0.9877485211486293  0.10211237376375273  0.2566515516441733  1.0000
  C   C1        1.0  0.5967761328549999  0.5251588461367465  0.7822034560948897  1.0000
  C   C2        1.0  0.40322386690782636  0.4748411537788167  0.21779654379042246  1.0000
  C   C3        1.0  0.404708437490913  0.45504699047784974  0.764218265171557  1.0000
  C   C4        1.0  0.5952915622719133  0.5449530094377133  0.23578173471375524  1.0000
  C   C5        1.0  0.3254362162127073  0.32579156296268774  0.6410120242238374  1.0000
  C   C6        1.0  0.674563783699917  0.6742084372224731  0.35898797675637834  1.0000
  C   C7        1.0  0.43562607306701395  0.2622114826165967  0.5340777172395688  1.0000
  C   C8        1.0  0.5643739266958123  0.7377885172989664  0.46592228264574337  1.0000
  C   C9        1.0  0.6262279452522017  0.3330500643023161  0.5518035322761842  1.0000
  C   C10       1.0  0.37377205587396906  0.6669499356095825  0.44819646761008125  1.0000
  C   C11       1.0  0.706617626810099  0.46326709681504613  0.6734740090933454  1.0000
  C   C12       1.0  0.29338237295272723  0.536732903100517  0.3265259907919667  1.0000
  C   C13       1.0  0.13918578053857983  0.7453311004806846  0.029316197221560834  1.0000
  C   C14       1.0  0.8608142192242465  0.2546688994348784  0.9706838026637512  1.0000
  C   C15       1.0  0.3241482939509831  0.8308237631917934  0.06442308138408774  1.0000
  C   C16       1.0  0.6758517058118433  0.1691762367237697  0.9355769185012245  1.0000
  C   C17       1.0  0.4028289404388223  0.9509268571832461  0.9816778704261715  1.0000
  C   C18       1.0  0.5971710593240039  0.049073142732317124  0.018322129459140774  1.0000
  C   C19       1.0  0.28752525088060116  0.9731875478589458  0.862870388617721  1.0000
  C   C20       1.0  0.7124747503953677  0.02681245232255054  0.13712961236344792  1.0000
  C   C21       1.0  0.10432278071315776  0.8810858815238611  0.8343932745554435  1.0000
  C   C22       1.0  0.8956772190496685  0.11891411839170188  0.16560672532986864  1.0000
  N   N1        1.0  0.02942223083443292  0.7697602819657337  0.9166768189229516  1.0000
  N   N2        1.0  0.9705777689283933  0.23023971794982945  0.0833231809623605  1.0000
  O   O1        1.0  0.6679635096601065  0.6476524786941497  0.9040381581844553  1.0000
  O   O2        1.0  0.33203649010271974  0.3523475212214134  0.09596184170085682  1.0000
  Cl  Cl1       1.0  0.08772550628934578  0.24404577590610232  0.6212850366918125  1.0000
  Cl  Cl2       1.0  0.9122744934734806  0.7559542240094609  0.3787149631934997  1.0000
  Cl  Cl3       1.0  0.3407603495827029  0.09991760683422966  0.38197803023383053  1.0000
  Cl  Cl4       1.0  0.6592396501801234  0.9000823930813334  0.6180219696514816  1.0000
