data_image0
_chemical_formula_structural       H88B4C58N2Cl8
_chemical_formula_sum              "H88 B4 C58 N2 Cl8"
_cell_length_a       9.19097752090651
_cell_length_b       9.188266000742761
_cell_length_c       20.234680684736368
_cell_angle_alpha    80.36734105784791
_cell_angle_beta     89.53036935480318
_cell_angle_gamma    60.3040956175875

_space_group_name_H-M_alt    "P 1"
_space_group_IT_number       1

loop_
  _space_group_symop_operation_xyz
  'x, y, z'

loop_
  _atom_site_type_symbol
  _atom_site_label
  _atom_site_symmetry_multiplicity
  _atom_site_fract_x
  _atom_site_fract_y
  _atom_site_fract_z
  _atom_site_occupancy
  H   H1        1.0  0.374513456606843  0.5398930346357064  0.44394906447289667  1.0000
  H   H2        1.0  0.6254865439383472  0.4601069652301816  0.556050935523537  1.0000
  H   H3        1.0  0.5885885775526379  0.393565277164474  0.4389101009980859  1.0000
  H   H4        1.0  0.41141142190457985  0.6064347227012916  0.5610898989989146  1.0000
  H   H5        1.0  0.7932401234674851  0.13067771257689217  0.3110836532064583  1.0000
  H   H6        1.0  0.20675987707770518  0.8693222872889956  0.6889163467899754  1.0000
  H   H7        1.0  0.7573030894287304  0.16440435650572843  0.3935796593502203  1.0000
  H   H8        1.0  0.2426969100284875  0.8355956433600368  0.6064203406467802  1.0000
  H   H9        1.0  0.4806483390392879  0.2930900927820233  0.5383430125698825  1.0000
  H   H10       1.0  0.51935166041793  0.7069099070837421  0.4616569874271182  1.0000
  H   H11       1.0  0.540896456967538  0.14877615660262855  0.4817332006983225  1.0000
  H   H12       1.0  0.4591035435776522  0.8512238432632596  0.5182667992981111  1.0000
  H   H13       1.0  0.32426188862979227  0.2951461241332108  0.48643748201227616  1.0000
  H   H14       1.0  0.6757381119153979  0.7048538757326772  0.5135625179841575  1.0000
  H   H15       1.0  0.9197240276149583  0.2968332552632702  0.33972427303288233  1.0000
  H   H16       1.0  0.0802759712216641  0.7031667458558818  0.6602757269630718  1.0000
  H   H17       1.0  0.7242326183871768  0.4555032532786871  0.3608745511428493  1.0000
  H   H18       1.0  0.27576738153741787  0.5444967478405874  0.639125448852538  1.0000
  H   H19       1.0  0.7509656365223955  0.4277073492680925  0.2760517502801167  1.0000
  H   H20       1.0  0.24903436231422676  0.5722926518510594  0.7239482497158374  1.0000
  H   H21       1.0  0.5839346715459494  0.7206176973317338  0.28687334747422555  1.0000
  H   H22       1.0  0.416065328999241  0.27938230253415425  0.7131266525222082  1.0000
  H   H23       1.0  0.3895103893733299  0.881503521691903  0.2438641101869457  1.0000
  H   H24       1.0  0.6104896111718602  0.11849647817398506  0.756135889809488  1.0000
  H   H25       1.0  0.3723606470624121  0.9386914809584768  0.37118362882296274  1.0000
  H   H26       1.0  0.627639353482778  0.06130851890741133  0.628816371173471  1.0000
  H   H27       1.0  0.24350694085727626  0.10557864491125137  0.30362219663156637  1.0000
  H   H28       1.0  0.7564930590673183  0.8944213562080232  0.6963778033638208  1.0000
  H   H29       1.0  0.35516135691438555  0.14180436093975554  0.3645040027601494  1.0000
  H   H30       1.0  0.6448386436308045  0.8581956389261325  0.6354959972362844  1.0000
  H   H31       1.0  0.6850098224155853  0.7878608540479166  0.37741439187723036  1.0000
  H   H32       1.0  0.31499017812960484  0.2121391458179715  0.6225856081192034  1.0000
  H   H33       1.0  0.6586966826403163  0.991938195794673  0.37897330775773663  1.0000
  H   H34       1.0  0.3413033168169017  0.008061804071092298  0.621026692239264  1.0000
  H   H35       1.0  0.7911664933241302  0.8668749930931395  0.3223045854912211  1.0000
  H   H36       1.0  0.2088335061330876  0.13312500677262581  0.6776954145057795  1.0000
  H   H37       1.0  0.8049139618481633  0.6052393096308183  0.20425058818827332  1.0000
  H   H38       1.0  0.1950860376090545  0.39476069023494703  0.7957494118087273  1.0000
  H   H39       1.0  0.861505094768226  0.7342768181520842  0.24069293583932636  1.0000
  H   H40       1.0  0.13849490468899164  0.2657231817136813  0.7593070641576741  1.0000
  H   H41       1.0  0.8472451441572515  0.7519041934275478  0.15160305360557585  1.0000
  H   H42       1.0  0.15275485529996632  0.2480958064382177  0.8483969463914248  1.0000
  H   H43       1.0  0.5446899802713739  0.7132874011904894  0.1402209559909377  1.0000
  H   H44       1.0  0.4553100191858441  0.28671259867527593  0.8597790440060629  1.0000
  H   H45       1.0  0.5662591943895529  0.8721817483869551  0.0849307806343974  1.0000
  H   H46       1.0  0.4337408055350417  0.12781825273231945  0.91506921936099  1.0000
  H   H47       1.0  0.3815159184545817  0.9274463433477451  0.12854526578306283  1.0000
  H   H48       1.0  0.6184840820906083  0.07255365651814293  0.8714547342133709  1.0000
  H   H49       1.0  0.379755830022193  0.3777223684007905  0.9731691535316473  1.0000
  H   H50       1.0  0.6202441705229972  0.6222776314650975  0.02683084646478627  1.0000
  H   H51       1.0  0.6597846691328502  0.33548040995230105  0.9482503056501722  1.0000
  H   H52       1.0  0.3402153314123401  0.6645195899135868  0.051749694346261595  1.0000
  H   H53       1.0  0.9008885540224044  0.16254905741833375  0.0349778829658778  1.0000
  H   H54       1.0  0.0991114454348134  0.8374509424474316  0.9650221170311227  1.0000
  H   H55       1.0  0.28089628025934105  0.19102672421547037  0.13250610539582863  1.0000
  H   H56       1.0  0.7191037202858491  0.8089732756504178  0.8674938946006052  1.0000
  H   H57       1.0  0.038802329643163394  0.47423457894960824  0.09555353557000422  1.0000
  H   H58       1.0  0.9611976698140544  0.5257654209161573  0.9044464644269964  1.0000
  H   H59       1.0  0.14710338406166437  0.5255584953784366  0.03093136924164041  1.0000
  H   H60       1.0  0.8528966153955534  0.4744415044873291  0.9690686307553602  1.0000
  H   H61       1.0  0.2118646250126364  0.4983970612003239  0.11668352229171296  1.0000
  H   H62       1.0  0.7881353744445815  0.5016029386654416  0.8833164777052877  1.0000
  H   H63       1.0  0.09103734816097188  0.22095193749585698  0.03995878267102982  1.0000
  H   H64       1.0  0.9089626523842183  0.779048062370031  0.9600412173254039  1.0000
  H   H65       1.0  0.298297151335046  0.06703631607443687  0.026480057537529095  1.0000
  H   H66       1.0  0.7017028481221719  0.9329636837913284  0.9735199424594716  1.0000
  H   H67       1.0  0.20172543717201324  0.2775922687111094  0.9790464253601209  1.0000
  H   H68       1.0  0.7982745622852045  0.7224077311546561  0.0209535746368798  1.0000
  H   H69       1.0  0.8812054126484501  0.9519371435033984  0.20559175354116102  1.0000
  H   H70       1.0  0.11879458789673998  0.0480628563624897  0.7944082464552726  1.0000
  H   H71       1.0  0.16415333306129185  0.7932502513507615  0.17249121583362967  1.0000
  H   H72       1.0  0.8358466674838984  0.20674974851512642  0.8275087841628042  1.0000
  H   H73       1.0  0.11119647151866506  0.929424698848416  0.09239191782941485  1.0000
  H   H74       1.0  0.888803529026525  0.07057530101747209  0.9076080821670188  1.0000
  H   H75       1.0  0.02925023185713126  0.790665635856314  0.11111881810963443  1.0000
  H   H76       1.0  0.9707497687976597  0.20933436377241174  0.8888811823899841  1.0000
  H   H77       1.0  0.0663765540080307  0.0664658040253791  0.22105523508873914  1.0000
  H   H78       1.0  0.933623445449187  0.9335341958403865  0.7789447649082615  1.0000
  H   H79       1.0  0.8542658338774372  0.23531914688084332  0.20480748784434544  1.0000
  H   H80       1.0  0.145734166667753  0.7646808529850447  0.7951925121520883  1.0000
  H   H81       1.0  0.9932113601549829  0.20139016284763234  0.14035183449898542  1.0000
  H   H82       1.0  0.006788638681639236  0.7986098382715195  0.8596481654969688  1.0000
  H   H83       1.0  0.9655489813308572  0.26455578799413404  0.5325228207285697  1.0000
  H   H84       1.0  0.034451019214332954  0.735444211871754  0.467477179267864  1.0000
  H   H85       1.0  0.17144078640245747  0.1254028821899337  0.4509506849984044  1.0000
  H   H86       1.0  0.8285592141427328  0.8745971176759543  0.5490493149980293  1.0000
  H   H87       1.0  0.20536912340336044  0.8600249216160447  0.4190342578449387  1.0000
  H   H88       1.0  0.7946308771418299  0.1399750782498433  0.580965742151495  1.0000
  B   B1        1.0  0.2259321236201179  0.5077664572149181  0.3373574885729496  1.0000
  B   B2        1.0  0.7740678769250726  0.4922335426509698  0.6626425114234841  1.0000
  B   B3        1.0  0.4741243414220259  0.3038539937800318  0.25087319333944885  1.0000
  B   B4        1.0  0.5258756591231645  0.6961460060858561  0.7491268066569848  1.0000
  C   C1        1.0  0.4178096519972341  0.3999075809592174  0.36379820556244163  1.0000
  C   C2        1.0  0.5821903474599839  0.600092418906548  0.636201794434559  1.0000
  C   C3        1.0  0.4614758419237522  0.41145577330421707  0.4340391514041359  1.0000
  C   C4        1.0  0.5385241586214381  0.5885442265616708  0.5659608485922978  1.0000
  C   C5        1.0  0.7223919729551357  0.23052434009045222  0.34071829816711613  1.0000
  C   C6        1.0  0.27760802759005454  0.7694756597754357  0.6592817018293177  1.0000
  C   C7        1.0  0.5345732660912732  0.3118678126869115  0.32293857406031706  1.0000
  C   C8        1.0  0.4654267333659446  0.688132187178854  0.6770614259366836  1.0000
  C   C9        1.0  0.45067142156759904  0.27920479414157157  0.4881474027687633  1.0000
  C   C10       1.0  0.5493285789775911  0.7207952057243164  0.5118525972276703  1.0000
  C   C11       1.0  0.7831360732856044  0.3600098457783237  0.32852953883793995  1.0000
  C   C12       1.0  0.21686392725958575  0.6399901540875643  0.6714704611584937  1.0000
  C   C13       1.0  0.5220546313048108  0.11316840937434475  0.2393731212853626  1.0000
  C   C14       1.0  0.4779453692403795  0.8868315904915433  0.7606268787110712  1.0000
  C   C15       1.0  0.5191558009605588  0.8497663367651194  0.25674754349774964  1.0000
  C   C16       1.0  0.48084419849665916  0.15023366310064604  0.743252456499251  1.0000
  C   C17       1.0  0.5159324201592792  0.9819681528108688  0.29535883846761685  1.0000
  C   C18       1.0  0.484067580385911  0.018031847055019024  0.7046411615288168  1.0000
  C   C19       1.0  0.603026478578275  0.862640471772456  0.1923856085107456  1.0000
  C   C20       1.0  0.39697352196691515  0.13735952809343213  0.807614391485688  1.0000
  C   C21       1.0  0.3612639870819592  0.048580961824555485  0.33562941416825787  1.0000
  C   C22       1.0  0.6387360134632311  0.9514190380413323  0.6643705858281759  1.0000
  C   C23       1.0  0.6732065319929587  0.9034764982194907  0.3459672791550927  1.0000
  C   C24       1.0  0.3267934674642591  0.09652350164627488  0.6540327208419079  1.0000
  C   C25       1.0  0.7908831438636019  0.7327125906908586  0.1977799801298686  1.0000
  C   C26       1.0  0.20911685559361592  0.2672874091749069  0.802220019867132  1.0000
  C   C27       1.0  0.5181921958959675  0.8454509642402329  0.13241250094921775  1.0000
  C   C28       1.0  0.4818078035612502  0.1545490356255325  0.8675874990477829  1.0000
  C   C29       1.0  0.5984233850861818  0.12695144453315046  0.12148067984079593  1.0000
  C   C30       1.0  0.40157661545900836  0.8730485553327377  0.8785193201556377  1.0000
  C   C31       1.0  0.4599959045573966  0.22382059157068224  0.07242364051661034  1.0000
  C   C32       1.0  0.5400040959877939  0.7761794082952056  0.9275763594798233  1.0000
  C   C33       1.0  0.48610513802114064  0.29859826340108125  0.010848166147821765  1.0000
  C   C34       1.0  0.513894861436077  0.7014017364646843  0.9891518338491788  1.0000
  C   C35       1.0  0.6432345444875328  0.2764026833771857  0.9968839955805614  1.0000
  C   C36       1.0  0.356765454969685  0.7235973164885797  0.0031160044164392714  1.0000
  C   C37       1.0  0.7773978512104682  0.18010277060420407  0.04575248164204862  1.0000
  C   C38       1.0  0.22260214933472197  0.8198972292616841  0.954247518354385  1.0000
  C   C39       1.0  0.7587907769667068  0.10532221297664161  0.1091769060966717  1.0000
  C   C40       1.0  0.24120922249051077  0.894677786889124  0.8908230939003289  1.0000
  C   C41       1.0  0.28198618842596657  0.2599824498556322  0.08276345456291298  1.0000
  C   C42       1.0  0.7180138121192235  0.7400175500102557  0.9172365454335208  1.0000
  C   C43       1.0  0.16331160228446023  0.4509399016431954  0.0815042351271616  1.0000
  C   C44       1.0  0.8366883971727577  0.5490600982225701  0.918495764869839  1.0000
  C   C45       1.0  0.21593137982198884  0.2017575258713291  0.02913409466100703  1.0000
  C   C46       1.0  0.7840686207232014  0.7982424739945589  0.9708659053354267  1.0000
  C   C47       1.0  0.9110782589845281  0.012924310745696513  0.1604340103063609  1.0000
  C   C48       1.0  0.08892174156066235  0.9870756891201914  0.8395659896900729  1.0000
  C   C49       1.0  0.062364052561707906  0.8736480289364107  0.13251014054482502  1.0000
  C   C50       1.0  0.9376359468955099  0.12635197092935466  0.8674898594521757  1.0000
  C   C51       1.0  0.9583680990077011  0.13700861006951134  0.18294692755803488  1.0000
  C   C52       1.0  0.041631900449516694  0.8629913897962541  0.8170530724389657  1.0000
  C   C53       1.0  0.9803556689683887  0.1491803006901872  0.5179302462336742  1.0000
  C   C54       1.0  0.019644330956205866  0.8508197004290873  0.482069753761713  1.0000
  C   C55       1.0  0.09691561827851362  0.06999589364581975  0.4726558512716478  1.0000
  C   C56       1.0  0.9030843822666769  0.9300041062200682  0.527344148724786  1.0000
  C   C57       1.0  0.11619830271361145  0.9212598363191774  0.45487385966458244  1.0000
  C   C58       1.0  0.8838016978315789  0.07874016354671053  0.5451261403318512  1.0000
  N   N1        1.0  0.573252542779149  0.04591218251063322  0.1854350862468252  1.0000
  N   N2        1.0  0.42674745667806874  0.9540878173551324  0.8145649137501754  1.0000
  Cl  Cl1       1.0  0.07110240378244623  0.4770465142495653  0.3856420874903261  1.0000
  Cl  Cl2       1.0  0.928897596762744  0.5229534856163227  0.6143579125061076  1.0000
  Cl  Cl3       1.0  0.151214814098366  0.7380272364714692  0.31101078055803105  1.0000
  Cl  Cl4       1.0  0.8487851864468242  0.2619727633944189  0.6889892194384026  1.0000
  Cl  Cl5       1.0  0.5182011294678313  0.4366918796534747  0.1823961379380631  1.0000
  Cl  Cl6       1.0  0.4817988699893865  0.5633081202122908  0.8176038620589374  1.0000
  Cl  Cl7       1.0  0.22726558632688937  0.42048898989941386  0.2499398594229589  1.0000
  Cl  Cl8       1.0  0.7727344142183009  0.5795110099664742  0.7500601405734748  1.0000
