data_image0
_chemical_formula_structural       H160B8C108N4Cl16
_chemical_formula_sum              "H160 B8 C108 N4 Cl16"
_cell_length_a       9.232956162113622
_cell_length_b       31.988913203854718
_cell_length_c       9.416360081340528
_cell_angle_alpha    90.0
_cell_angle_beta     97.47844323075003
_cell_angle_gamma    90.0

_space_group_name_H-M_alt    "P 1"
_space_group_IT_number       1

loop_
  _space_group_symop_operation_xyz
  'x, y, z'

loop_
  _atom_site_type_symbol
  _atom_site_label
  _atom_site_symmetry_multiplicity
  _atom_site_fract_x
  _atom_site_fract_y
  _atom_site_fract_z
  _atom_site_occupancy
  H   H1        1.0  0.7932922854736308  0.41544562502981736  0.4439714330950555  1.0000
  H   H2        1.0  0.7067077145880339  0.9154456249695666  0.05602856659691018  1.0000
  H   H3        1.0  0.20670771526311338  0.584554374849681  0.5560285668566729  1.0000
  H   H4        1.0  0.29329228506598554  0.08455437490993183  0.9439714333574463  1.0000
  H   H5        1.0  0.8205127245465658  0.4184381136895592  0.6316422011987219  1.0000
  H   H6        1.0  0.6794872750068797  0.9184381136293084  0.8683577992683572  1.0000
  H   H7        1.0  0.1794872751074538  0.5815618865025475  0.36835779875563446  1.0000
  H   H8        1.0  0.3205127246471398  0.08156188656279834  0.13164220068599922  1.0000
  H   H9        1.0  0.7568223123815875  0.4627590951797698  0.5297463436270917  1.0000
  H   H10       1.0  0.7431776881097503  0.9627590954321273  0.9702536557662703  1.0000
  H   H11       1.0  0.2431776883551567  0.5372409046997285  0.47025365632463667  1.0000
  H   H12       1.0  0.25682231154426927  0.03724090475997937  0.02974634418808612  1.0000
  H   H13       1.0  0.4295779789862243  0.45689177768748995  0.24542152410517445  1.0000
  H   H14       1.0  0.07042202091320166  0.9568917776272392  0.2545784764075484  1.0000
  H   H15       1.0  0.5704220206677952  0.5431082221920085  0.754578475849182  1.0000
  H   H16       1.0  0.929577978740818  0.04310822225225926  0.7454215235468081  1.0000
  H   H17       1.0  0.59652086420509  0.47502904969490795  0.34296732491094845  1.0000
  H   H18       1.0  0.9034791360014073  0.9750290496346571  0.15703267585210623  1.0000
  H   H19       1.0  0.4034791354489296  0.5249709504971987  0.657032675043408  1.0000
  H   H20       1.0  0.09652086365261237  0.024970950244841205  0.8429673241022503  1.0000
  H   H21       1.0  0.425569924828583  0.4931154606433825  0.3853889410158374  1.0000
  H   H22       1.0  0.07443007492601061  0.99311546089574  0.11461105842579633  1.0000
  H   H23       1.0  0.5744300748254366  0.5068845392361159  0.6146110589385191  1.0000
  H   H24       1.0  0.9255699247280089  0.006884539296366656  0.8853889415285602  1.0000
  H   H25       1.0  0.6133605199143178  0.4247664305882904  0.12277025443939638  1.0000
  H   H26       1.0  0.886639480147347  0.9247664305280395  0.37722974525256925  1.0000
  H   H27       1.0  0.3866394808224264  0.5752335696038162  0.8772297455123319  1.0000
  H   H28       1.0  0.11336051950667257  0.0752335693514588  0.6227702547017873  1.0000
  H   H29       1.0  0.45758018876103607  0.39389577725577885  0.06628942925290525  1.0000
  H   H30       1.0  0.042419811138389905  0.8938957771955279  0.43371057125981755  1.0000
  H   H31       1.0  0.5424198119757081  0.6061042226237195  0.9337105706988229  1.0000
  H   H32       1.0  0.9575801885156296  0.10610422268397035  0.566289428694539  1.0000
  H   H33       1.0  0.41533608595297944  0.4496770977598145  0.7301952228680711  1.0000
  H   H34       1.0  0.08466391437611953  0.9496770976995638  0.769804777346048  1.0000
  H   H35       1.0  0.5846639137010401  0.5503229021196838  0.26980477708628536  1.0000
  H   H36       1.0  0.9153360863606246  0.050322902179934625  0.2301952226056802  1.0000
  H   H37       1.0  0.40896608802924256  0.46428286029455734  0.9110714409845392  1.0000
  H   H38       1.0  0.09103391215502406  0.9642828602343065  0.588928558158491  1.0000
  H   H39       1.0  0.5910339127075016  0.5357171395849409  0.0889285589671892  1.0000
  H   H40       1.0  0.9089660874989954  0.03571713964519184  0.4110714417958655  1.0000
  H   H41       1.0  0.3280170095763775  0.4166201816570013  0.8449651973238099  1.0000
  H   H42       1.0  0.1719829907527214  0.9166201815967505  0.6550348028903094  1.0000
  H   H43       1.0  0.6719829911603667  0.5833798182224971  0.15503480262791847  1.0000
  H   H44       1.0  0.8280170089012981  0.08337981828274786  0.34496519706404716  1.0000
  H   H45       1.0  0.6834562342018488  0.4603925830848582  0.7678579893778541  1.0000
  H   H46       1.0  0.8165437652067644  0.9603925830246074  0.7321420100181362  1.0000
  H   H47       1.0  0.3165437654521708  0.5396074167946402  0.23214201057650238  1.0000
  H   H48       1.0  0.18345623444725517  0.039607416854890984  0.2678579899362204  1.0000
  H   H49       1.0  0.799680824769607  0.4350272330703343  0.906658474591916  1.0000
  H   H50       1.0  0.7003191758665631  0.9350272330100835  0.5933415258725351  1.0000
  H   H51       1.0  0.2003191759671372  0.5649727668091641  0.09334152535981234  1.0000
  H   H52       1.0  0.299680824870181  0.06497276686941489  0.4066584740791932  1.0000
  H   H53       1.0  0.6777168790323097  0.4743628326257569  0.9491451566993917  1.0000
  H   H54       1.0  0.822283120521136  0.9743628325655062  0.5508548437676878  1.0000
  H   H55       1.0  0.32228312062170994  0.5256371672537414  0.0508548432549649  1.0000
  H   H56       1.0  0.17771687913288364  0.025637167313992276  0.4491451561866688  1.0000
  H   H57       1.0  0.4757275359572021  0.32212866952786273  0.09709320925671958  1.0000
  H   H58       1.0  0.024272465024948512  0.8221286694676119  0.40290679125337503  1.0000
  H   H59       1.0  0.5242724647795421  0.6778713303516356  0.9029067906950088  1.0000
  H   H60       1.0  0.9757275357117957  0.17787133041188646  0.5970932086983534  1.0000
  H   H61       1.0  0.5924611830653516  0.33788340044942683  0.2522275976850852  1.0000
  H   H62       1.0  0.9075388169963132  0.837883400389176  0.2477724020068804  1.0000
  H   H63       1.0  0.40753881658866803  0.6621165994300715  0.7477724022692713  1.0000
  H   H64       1.0  0.09246118374043094  0.16211659949032237  0.752227597944848  1.0000
  H   H65       1.0  0.6498217787723489  0.2976174560645208  0.1428175941037285  1.0000
  H   H66       1.0  0.8501782212893159  0.7976174560042699  0.3571824055882371  1.0000
  H   H67       1.0  0.3501782208816706  0.7023825438149776  0.8571824058506279  1.0000
  H   H68       1.0  0.14982177836470373  0.20238254387522842  0.6428175943661195  1.0000
  H   H69       1.0  0.8812885760955955  0.33907893090575353  0.1309273172322222  1.0000
  H   H70       1.0  0.6187114239660693  0.8390789308455027  0.3690726824597434  1.0000
  H   H71       1.0  0.11871142355842416  0.6609210692863532  0.8690726827221344  1.0000
  H   H72       1.0  0.3812885756879502  0.16092106903399567  0.6309273174946132  1.0000
  H   H73       1.0  0.811624710543596  0.3757108206024249  0.2448095013189582  1.0000
  H   H74       1.0  0.6883752896629013  0.8757108205421741  0.2551904994440965  1.0000
  H   H75       1.0  0.18837528911042364  0.6242891795896818  0.7551904986353983  1.0000
  H   H76       1.0  0.3116247099911183  0.12428917964993261  0.74480950051026  1.0000
  H   H77       1.0  0.8742953693660219  0.3932755876959282  0.08519631335188226  1.0000
  H   H78       1.0  0.6257046297577507  0.8932755876356774  0.4148036874138006  1.0000
  H   H79       1.0  0.12570463043283003  0.6067244121835702  0.9148036876735635  1.0000
  H   H80       1.0  0.3742953698962689  0.10672441224382102  0.5851963125405558  1.0000
  H   H81       1.0  0.04471087601126063  0.26228815360282237  0.8362875174068072  1.0000
  H   H82       1.0  0.45528912323511367  0.7622881535425716  0.6637124828099402  1.0000
  H   H83       1.0  0.9552891236427589  0.737711846276676  0.16371248254754928  1.0000
  H   H84       1.0  0.5447108764189058  0.23771184633692677  0.33628751714441635  1.0000
  H   H85       1.0  0.8878105848506698  0.1990587795034151  0.8257678412019059  1.0000
  H   H86       1.0  0.6121894157855005  0.6990587794431643  0.6742321592625451  1.0000
  H   H87       1.0  0.11218941480334989  0.8009412206886916  0.17423215875245057  1.0000
  H   H88       1.0  0.38781058495124376  0.30094122074894236  0.32576784068918313  1.0000
  H   H89       1.0  0.6235113475199671  0.20595346231412787  0.8308684075177614  1.0000
  H   H90       1.0  0.8764886531162032  0.7059534625664854  0.6691315929466898  1.0000
  H   H91       1.0  0.37648865321677705  0.7940465375653705  0.16913159243396694  1.0000
  H   H92       1.0  0.12351134762054117  0.2940465376256213  0.3308684070050386  1.0000
  H   H93       1.0  0.9120597478986591  0.37120593139028885  0.8787070921113896  1.0000
  H   H94       1.0  0.5879402525926788  0.8712059313300381  0.6212929072819724  1.0000
  H   H95       1.0  0.08794025283808514  0.6287940684892095  0.1212929078403387  1.0000
  H   H96       1.0  0.4120597470613408  0.12879406854946032  0.37870709267238406  1.0000
  H   H97       1.0  0.9174677105520889  0.35037356313341117  0.6212915411790879  1.0000
  H   H98       1.0  0.5825322900840811  0.8503735630731604  0.8787084592853631  1.0000
  H   H99       1.0  0.08253229018465527  0.6496264367460872  0.3787084587726404  1.0000
  H   H100      1.0  0.41746770956993834  0.14962643680633803  0.12129154066899332  1.0000
  H   H101      1.0  0.0809809750999373  0.32224622275563375  0.6745410875766638  1.0000
  H   H102      1.0  0.419019024146437  0.822246222695383  0.8254589126400836  1.0000
  H   H103      1.0  0.9190190245540822  0.6777537774364729  0.32545891237769264  1.0000
  H   H104      1.0  0.5809809755075825  0.17775377749672377  0.17454108731427292  1.0000
  H   H105      1.0  0.07709548138423993  0.37735783748181206  0.6972624547139493  1.0000
  H   H106      1.0  0.42290451894485903  0.8773578374215613  0.80273754550017  1.0000
  H   H107      1.0  0.9229045182697797  0.6226421623976863  0.30273754524040725  1.0000
  H   H108      1.0  0.5770954807091605  0.12264216245793712  0.19726245445418655  1.0000
  H   H109      1.0  0.17878632739953473  0.31347650687900325  0.9349968089093085  1.0000
  H   H110      1.0  0.32121367278473184  0.8134765068187525  0.5650031902337217  1.0000
  H   H111      1.0  0.8212136722544848  0.6865234930004952  0.06500319104504816  1.0000
  H   H112      1.0  0.6787863279520123  0.18652349306074598  0.4349968097180066  1.0000
  H   H113      1.0  0.08533992851625026  0.33418962444500283  0.0717485673467828  1.0000
  H   H114      1.0  0.4146600713831757  0.8341896246973604  0.42825143316593994  1.0000
  H   H115      1.0  0.9146600711377694  0.6658103754344955  0.9282514326075738  1.0000
  H   H116      1.0  0.5853399282708439  0.16581037549474636  0.5717485667884165  1.0000
  H   H117      1.0  0.17370304771023  0.36820353148417306  0.9620506636652874  1.0000
  H   H118      1.0  0.32629695261886893  0.8682035317365305  0.5379493365488318  1.0000
  H   H119      1.0  0.8262969530265142  0.6317964683953252  0.037949336286440954  1.0000
  H   H120      1.0  0.6737030470351507  0.1317964684555761  0.4620506634055247  1.0000
  H   H121      1.0  0.42984654689509516  0.3069760243938733  0.8725270490653574  1.0000
  H   H122      1.0  0.0701534523512792  0.8069760243336225  0.62747295115139  1.0000
  H   H123      1.0  0.5701534527589245  0.6930239757982334  0.1274729508889991  1.0000
  H   H124      1.0  0.9298465473027403  0.19302397585848421  0.3725270488029665  1.0000
  H   H125      1.0  0.2892127892876062  0.25001924444986295  0.964188745714847  1.0000
  H   H126      1.0  0.21078721089666044  0.7500192443896121  0.5358112534281833  1.0000
  H   H127      1.0  0.7107872103664135  0.7499807554296354  0.0358112542395096  1.0000
  H   H128      1.0  0.7892127887573591  0.24998075548988627  0.4641887465261732  1.0000
  H   H129      1.0  0.4610732095800978  0.25181262297555435  0.07107132400975637  1.0000
  H   H130      1.0  0.038926791257220386  0.7518126229153036  0.4289286754292491  1.0000
  H   H131      1.0  0.5389267911566463  0.748187376903944  0.9289286759419718  1.0000
  H   H132      1.0  0.9610732094795237  0.24818737696419485  0.5710713245224791  1.0000
  H   H133      1.0  0.4248116059567116  0.21289027315811931  0.9377369409902289  1.0000
  H   H134      1.0  0.07518839328966276  0.7128902730978686  0.5622630592265185  1.0000
  H   H135      1.0  0.575188393697308  0.7871097270339874  0.06226305896412766  1.0000
  H   H136      1.0  0.9248116063643569  0.2871097267816299  0.437736940727838  1.0000
  H   H137      1.0  0.42815205129126077  0.28191714806095036  0.6177742302571438  1.0000
  H   H138      1.0  0.07184794889300583  0.7819171483133078  0.8822257688858863  1.0000
  H   H139      1.0  0.5718479483627588  0.718082851818548  0.38222576969721267  1.0000
  H   H140      1.0  0.9281520518437384  0.2180828518787988  0.11777423106584203  1.0000
  H   H141      1.0  0.2694524301164545  0.2672912654303513  0.6933251587926113  1.0000
  H   H142      1.0  0.2305475702126444  0.7672912653701005  0.8066748414215079  1.0000
  H   H143      1.0  0.7305475695375651  0.7327087344491471  0.3066748411617452  1.0000
  H   H144      1.0  0.7694524294413752  0.23270873450939789  0.19332515853284854  1.0000
  H   H145      1.0  0.409561327723241  0.23009393014055424  0.6771777054623155  1.0000
  H   H146      1.0  0.09043867260585794  0.7300939300803034  0.8228222947518038  1.0000
  H   H147      1.0  0.5904386730135033  0.7699060700515524  0.3228222944894129  1.0000
  H   H148      1.0  0.9095613270481615  0.26990606979919496  0.17717770520255266  1.0000
  H   H149      1.0  0.8453931004802759  0.5635795550512032  0.9604501756165522  1.0000
  H   H150      1.0  0.6546068989283372  0.06357955511145402  0.5395498237794379  1.0000
  H   H151      1.0  0.1546068991737436  0.4364204448282952  0.03954982433780428  1.0000
  H   H152      1.0  0.34539310072568236  0.9364204447680443  0.4604501761749185  1.0000
  H   H153      1.0  0.9543827083927754  0.5327654225510338  0.7582609841729893  1.0000
  H   H154      1.0  0.5456172910158377  0.032765422611284546  0.741739015223001  1.0000
  H   H155      1.0  0.04561729126124412  0.4672345773284647  0.24173901578136725  1.0000
  H   H156      1.0  0.4543827086381818  0.9672345775808221  0.2582609847313555  1.0000
  H   H157      1.0  0.10944332900088272  0.46895190700609124  0.7959911550167043  1.0000
  H   H158      1.0  0.39055667132821625  0.9689519069458403  0.7040088451974149  1.0000
  H   H159      1.0  0.8905566706531369  0.5310480928734072  0.20400884493765223  1.0000
  H   H160      1.0  0.6094433283258033  0.03104809293365798  0.29599115475694154  1.0000
  B   B1        1.0  0.5699573706662056  0.3735446379141162  0.6339756704296171  1.0000
  B   B2        1.0  0.9300426288872399  0.8735446378538654  0.866024330037462  1.0000
  B   B3        1.0  0.4300426289878141  0.6264553622779906  0.36602432952473934  1.0000
  B   B4        1.0  0.06995737076677956  0.126455362025633  0.13397566991689439  1.0000
  B   B5        1.0  0.3179830244806151  0.41066739674097447  0.4572496123698714  1.0000
  B   B6        1.0  0.18201697635670308  0.9106673966807236  0.04275038706913421  1.0000
  B   B7        1.0  0.6820169762561291  0.5893326034511323  0.542750387581857  1.0000
  B   B8        1.0  0.817983024380041  0.08933260319877476  0.9572496128825941  1.0000
  C   C1        1.0  0.5918749425828478  0.4139325311121982  0.5406181365915914  1.0000
  C   C2        1.0  0.9081250569705978  0.9139325310519474  0.959381863875488  1.0000
  C   C3        1.0  0.40812505707117186  0.5860674690799085  0.45938186336276515  1.0000
  C   C4        1.0  0.09187494268342171  0.0860674691401593  0.04061813607886858  1.0000
  C   C5        1.0  0.4749681225972598  0.43014418971701474  0.4564848352337986  1.0000
  C   C6        1.0  0.02503187715733381  0.9301441899693722  0.04351516420783511  1.0000
  C   C7        1.0  0.5250318770567597  0.5698558101624837  0.5435151647205579  1.0000
  C   C8        1.0  0.9749681224966859  0.06985581022273447  0.9564848357465214  1.0000
  C   C9        1.0  0.7473804375513914  0.4285730459998238  0.5366737897923255  1.0000
  C   C10       1.0  0.7526195629399465  0.9285730462521813  0.9633262096010367  1.0000
  C   C11       1.0  0.25261956318535284  0.5714269538796745  0.4633262101594028  1.0000
  C   C12       1.0  0.24738043671407314  0.07142695393992533  0.03667379035331995  1.0000
  C   C13       1.0  0.48402481811973774  0.4654987815655342  0.3524655086121546  1.0000
  C   C14       1.0  0.01597518163485588  0.9654987815052835  0.14753449082947914  1.0000
  C   C15       1.0  0.5159751815342819  0.5345012183139641  0.647534491342202  1.0000
  C   C16       1.0  0.9840248180191637  0.034501218374214965  0.8524655091248774  1.0000
  C   C17       1.0  0.6014069214849561  0.37695095276156365  0.8091475359622115  1.0000
  C   C18       1.0  0.8985930780684893  0.8769509530139211  0.6908524645048679  1.0000
  C   C19       1.0  0.39859307831389584  0.6230490471179346  0.19085246506323417  1.0000
  C   C20       1.0  0.10140692158553014  0.1230490471781855  0.30914753544948864  1.0000
  C   C21       1.0  0.5664687033446862  0.41635990616883634  0.8901775607234204  1.0000
  C   C22       1.0  0.9335312962087593  0.9163599064211938  0.6098224397436588  1.0000
  C   C23       1.0  0.4335312964541657  0.5836400937106621  0.10982244030202516  1.0000
  C   C24       1.0  0.0664687034452602  0.08364009377091283  0.39017756021069755  1.0000
  C   C25       1.0  0.5693145156463114  0.40096257282208647  0.04526765799453267  1.0000
  C   C26       1.0  0.930685483477461  0.9009625727618357  0.4547323427711502  1.0000
  C   C27       1.0  0.4306854840077082  0.5990374273700202  0.9547323419598239  1.0000
  C   C28       1.0  0.06931451617655843  0.09903742743027102  0.5452676571832064  1.0000
  C   C29       1.0  0.6609159460498194  0.3610583793952782  0.05986759046143701  1.0000
  C   C30       1.0  0.8390840529291208  0.8610583793350274  0.4401324092331568  1.0000
  C   C31       1.0  0.3390840536042002  0.6389416207968285  0.9401324094929194  1.0000
  C   C32       1.0  0.16091594672489878  0.13894162054447098  0.5598675907211996  1.0000
  C   C33       1.0  0.4206678658931436  0.4377137266517932  0.8395266533536744  1.0000
  C   C34       1.0  0.07933213443595533  0.9377137265915424  0.6604733468604448  1.0000
  C   C35       1.0  0.5793321337608759  0.5622862732277052  0.16047334660068208  1.0000
  C   C36       1.0  0.9206678663007888  0.06228627328795603  0.33952665309128355  1.0000
  C   C37       1.0  0.6901674640627241  0.44807497424678994  0.876753785865633  1.0000
  C   C38       1.0  0.8098325354907215  0.9480749744991475  0.6232462146014462  1.0000
  C   C39       1.0  0.30983253559129553  0.5519250256327084  0.12324621408872352  1.0000
  C   C40       1.0  0.19016746416329808  0.051925025692959266  0.3767537853529102  1.0000
  C   C41       1.0  0.5899343093741086  0.327238915660898  0.1411097290152236  1.0000
  C   C42       1.0  0.9100656906875562  0.8272389156006472  0.358890270676742  1.0000
  C   C43       1.0  0.41006569027991097  0.6727610845312086  0.858890270939133  1.0000
  C   C44       1.0  0.08993430896646334  0.17276108459145947  0.6411097292776144  1.0000
  C   C45       1.0  0.8170760259110642  0.36783244760506933  0.13222004253137223  1.0000
  C   C46       1.0  0.6829239732127084  0.8678324475448185  0.36777995823431064  1.0000
  C   C47       1.0  0.1829239738877877  0.6321675525870374  0.8677799584940734  1.0000
  C   C48       1.0  0.3170760264413113  0.13216755264728816  0.632220041720046  1.0000
  C   C49       1.0  0.7193878516994182  0.3083019050116271  0.8691760273362125  1.0000
  C   C50       1.0  0.780612148936752  0.8083019049513762  0.6308239731282387  1.0000
  C   C51       1.0  0.2806121490373259  0.6916980948678713  0.1308239726155159  1.0000
  C   C52       1.0  0.2193878517999923  0.19169809492812212  0.36917602682348966  1.0000
  C   C53       1.0  0.8703315646030959  0.3053657802548573  0.8586459707828684  1.0000
  C   C54       1.0  0.6296684358882421  0.8053657801946064  0.6413540286104938  1.0000
  C   C55       1.0  0.1296684361336484  0.6946342196246411  0.14135402916886  1.0000
  C   C56       1.0  0.3703315637657775  0.19463421968489197  0.3586459713438628  1.0000
  C   C57       1.0  0.9281090833767647  0.26544555721189  0.8427318958418482  1.0000
  C   C58       1.0  0.5718909160318485  0.7654455571516392  0.6572681035541421  1.0000
  C   C59       1.0  0.07189091627725494  0.7345544426676084  0.1572681041125084  1.0000
  C   C60       1.0  0.42810908362217104  0.23455444272785922  0.3427318964002144  1.0000
  C   C61       1.0  0.8406369792383281  0.22995297630535308  0.8350275366869683  1.0000
  C   C62       1.0  0.659363020170285  0.7299529762451022  0.6649724627090219  1.0000
  C   C63       1.0  0.15936302041569142  0.7700470238867536  0.16497246326738824  1.0000
  C   C64       1.0  0.34063697948373456  0.2700470239470044  0.3350275372453346  1.0000
  C   C65       1.0  0.6916033085001675  0.23392843271394015  0.8396820300856496  1.0000
  C   C66       1.0  0.8083966919911701  0.7339284326536893  0.6603179693077125  1.0000
  C   C67       1.0  0.308396691153852  0.7660715671655582  0.16031796986870694  1.0000
  C   C68       1.0  0.191603308745574  0.266071567225809  0.3396820306440158  1.0000
  C   C69       1.0  0.6272223904747853  0.2729322441922761  0.8565387660508844  1.0000
  C   C70       1.0  0.8727776090786601  0.7729322441320253  0.6434612344161948  1.0000
  C   C71       1.0  0.3727776091792342  0.7270677556872224  0.14346123390347204  1.0000
  C   C72       1.0  0.12722239057535942  0.22706775574747312  0.3565387655381617  1.0000
  C   C73       1.0  0.9708260475314389  0.342844456456196  0.8535366068070727  1.0000
  C   C74       1.0  0.5291739531047311  0.8428444563959452  0.6464633936573785  1.0000
  C   C75       1.0  0.029173952267412918  0.6571555437359108  0.1464633942183729  1.0000
  C   C76       1.0  0.470826047632013  0.15715554379616153  0.3535366062943499  1.0000
  C   C77       1.0  0.013483881777711837  0.3485310979135269  0.7024248191521452  1.0000
  C   C78       1.0  0.4865161185513871  0.8485310978532761  0.7975751810619741  1.0000
  C   C79       1.0  0.9865161189590325  0.6514689022785798  0.2975751807995832  1.0000
  C   C80       1.0  0.5134838811026325  0.15146890202622235  0.20242481889238237  1.0000
  C   C81       1.0  0.10927880462770125  0.33934082101582425  0.9621808293694252  1.0000
  C   C82       1.0  0.3907211946186731  0.8393408209555735  0.5378191708473222  1.0000
  C   C83       1.0  0.8907211950263184  0.6606591788636742  0.03781917058493132  1.0000
  C   C84       1.0  0.6092788050353465  0.16065917892392495  0.4621808291070343  1.0000
  C   C85       1.0  0.4621415402961048  0.27469602871475873  0.8512094481486686  1.0000
  C   C86       1.0  0.037858459888161757  0.7746960286545079  0.6487905509943616  1.0000
  C   C87       1.0  0.5378584604406393  0.7253039714773479  0.14879055180305967  1.0000
  C   C88       1.0  0.9621415397658579  0.22530397153759874  0.351209448959995  1.0000
  C   C89       1.0  0.40709230380520767  0.2458854450563885  0.9625538966455245  1.0000
  C   C90       1.0  0.09290769637905896  0.7458854449961377  0.5374461024975056  1.0000
  C   C91       1.0  0.5929076969315366  0.7541145551357181  0.03744610330620382  1.0000
  C   C92       1.0  0.9070923032749605  0.2541145548833607  0.4625538974568508  1.0000
  C   C93       1.0  0.3883729110197946  0.2629681298139986  0.7010727146389715  1.0000
  C   C94       1.0  0.1116270893093043  0.7629681300663561  0.7989272855751477  1.0000
  C   C95       1.0  0.6116270886342249  0.7370318700654998  0.298927285315385  1.0000
  C   C96       1.0  0.8883729114274399  0.2370318701257506  0.20107271437658064  1.0000
  C   C97       1.0  0.9135556576685663  0.5357770694108712  0.9786731973838121  1.0000
  C   C98       1.0  0.5864443418848793  0.03577706947112194  0.5213268030832672  1.0000
  C   C99       1.0  0.08644434198545332  0.4642229304686272  0.021326802570544406  1.0000
  C   C100      1.0  0.4135556577691403  0.9642229304083765  0.4786731968710892  1.0000
  C   C101      1.0  0.9751808260316643  0.5184436790431988  0.8640801732214852  1.0000
  C   C102      1.0  0.5248191733769488  0.018443679103449656  0.6359198261745049  1.0000
  C   C103      1.0  0.02481917362235514  0.48155632083629957  0.1359198267328712  1.0000
  C   C104      1.0  0.4751808262770708  0.9815563210886571  0.3640801737798516  1.0000
  C   C105      1.0  0.06174756322093916  0.4825619764456349  0.8854831557335259  1.0000
  C   C106      1.0  0.4382524360254352  0.9825619763853841  0.6145168444832214  1.0000
  C   C107      1.0  0.9382524364330804  0.5174380237464717  0.11451684422083057  1.0000
  C   C108      1.0  0.5617475636285845  0.017438023494114246  0.38548315547113504  1.0000
  N   N1        1.0  0.6586298998583308  0.34873222384609603  0.9006559737738444  1.0000
  N   N2        1.0  0.8413700996951148  0.8487322240984535  0.5993440266932348  1.0000
  N   N3        1.0  0.3413700997956888  0.6512677760334022  0.09934402618051213  1.0000
  N   N4        1.0  0.15862989995890486  0.15126777609365316  0.4006559732611216  1.0000
  Cl  Cl1       1.0  0.6505059490271624  0.3279655624166621  0.5504211626530864  1.0000
  Cl  Cl2       1.0  0.8494940516090077  0.8279655623564113  0.9495788378113647  1.0000
  Cl  Cl3       1.0  0.34949405170958175  0.6720344374628363  0.44957883729864195  1.0000
  Cl  Cl4       1.0  0.15050594804501186  0.17203443752308709  0.05042116214299176  1.0000
  Cl  Cl5       1.0  0.35668410133444406  0.36513300422449224  0.6064122850711388  1.0000
  Cl  Cl6       1.0  0.1433158979119303  0.8651330041642415  0.8935877151456085  1.0000
  Cl  Cl7       1.0  0.643315898464408  0.6348669959676144  0.39358771595430686  1.0000
  Cl  Cl8       1.0  0.8566841017420892  0.13486699571525693  0.10641228480874786  1.0000
  Cl  Cl9       1.0  0.24567883021561196  0.3832795016156587  0.28983047858294325  1.0000
  Cl  Cl10      1.0  0.25432116968381396  0.8832795015554079  0.2101695219297795  1.0000
  Cl  Cl11      1.0  0.7543211694384075  0.616720498576448  0.7101695213714132  1.0000
  Cl  Cl12      1.0  0.7456788310529302  0.11672049832409047  0.7898304780219488  1.0000
  Cl  Cl13      1.0  0.17569115529322626  0.44490597505779017  0.5150029478281453  1.0000
  Cl  Cl14      1.0  0.32430884503587265  0.9449059753101476  0.984997052385974  1.0000
  Cl  Cl15      1.0  0.8243088445056257  0.5550940248217082  0.48499705319730024  1.0000
  Cl  Cl16      1.0  0.6756911557008715  0.055094024881959046  0.015002947565754403  1.0000
