data_image0
_chemical_formula_structural       H92C176N12S16Cl8
_chemical_formula_sum              "H92 C176 N12 S16 Cl8"
_cell_length_a       16.9445654408641
_cell_length_b       16.523633115815155
_cell_length_c       12.666277374260282
_cell_angle_alpha    90.0
_cell_angle_beta     90.0
_cell_angle_gamma    90.0

_space_group_name_H-M_alt    "P 1"
_space_group_IT_number       1

loop_
  _space_group_symop_operation_xyz
  'x, y, z'

loop_
  _atom_site_type_symbol
  _atom_site_label
  _atom_site_symmetry_multiplicity
  _atom_site_fract_x
  _atom_site_fract_y
  _atom_site_fract_z
  _atom_site_occupancy
  H   H1        1.0  0.7740703469661319  0.7904159405173097  0.7567760097753109  1.0000
  H   H2        1.0  0.22592965298287251  0.20958405913076075  0.7567760097753109  1.0000
  H   H3        1.0  0.7259296529573748  0.29041594099587137  0.7567760097753109  1.0000
  H   H4        1.0  0.2740703469916297  0.7095840592573929  0.7567760097753109  1.0000
  H   H5        1.0  0.7056487203362738  0.7074376190797752  0.736012031360117  1.0000
  H   H6        1.0  0.2943512796127306  0.29256238117348904  0.736012031360117  1.0000
  H   H7        1.0  0.7943512795872328  0.20743761895314305  0.736012031360117  1.0000
  H   H8        1.0  0.2056487203617716  0.7925623813001211  0.736012031360117  1.0000
  H   H9        1.0  0.5812122650398153  0.029072937932772606  0.7075783582801422  1.0000
  H   H10       1.0  0.418787734909189  0.9709270623204915  0.7075783582801422  1.0000
  H   H11       1.0  0.9187877348836911  0.5290729380594047  0.7075783582801422  1.0000
  H   H12       1.0  0.08121226506531316  0.4709270621938595  0.7075783582801422  1.0000
  H   H13       1.0  0.7850069838864913  0.15672683131177373  0.11332794297691831  1.0000
  H   H14       1.0  0.21499301606251311  0.8432731683362966  0.11332794297691831  1.0000
  H   H15       1.0  0.7149930160370154  0.6567268314384058  0.11332794297691831  1.0000
  H   H16       1.0  0.28500698391198903  0.3432731682096646  0.11332794297691831  1.0000
  H   H17       1.0  0.7244163335341359  0.07135161630232295  0.4252951629613747  1.0000
  H   H18       1.0  0.2755836664148684  0.9286483833457475  0.4252951629613747  1.0000
  H   H19       1.0  0.7755836663893706  0.571351616428955  0.4252951629613747  1.0000
  H   H20       1.0  0.22441633355963375  0.42864838382430914  0.4252951629613747  1.0000
  H   H21       1.0  0.4288588329609841  0.7731588652723336  0.07034481195008847  1.0000
  H   H22       1.0  0.5711411669880203  0.2268411349809306  0.07034481195008847  1.0000
  H   H23       1.0  0.07114116701351811  0.27315886514570153  0.07034481195008847  1.0000
  H   H24       1.0  0.9288588329354862  0.726841134502369  0.07034481195008847  1.0000
  H   H25       1.0  0.3351533156645175  0.7203733668358433  0.37977836722377384  1.0000
  H   H26       1.0  0.6648466842844868  0.2796266334174209  0.37977836722377384  1.0000
  H   H27       1.0  0.16484668430998464  0.22037336670921123  0.37977836722377384  1.0000
  H   H28       1.0  0.8351533156390197  0.7796266335440529  0.37977836722377384  1.0000
  H   H29       1.0  0.33624921157667925  0.6731726286850118  0.9919145080094013  1.0000
  H   H30       1.0  0.6637507889624849  0.3268273709630586  0.9919145080094013  1.0000
  H   H31       1.0  0.1637507883978229  0.17317262855837967  0.9919145080094013  1.0000
  H   H32       1.0  0.8362492115511815  0.8268273710896907  0.9919145080094013  1.0000
  H   H33       1.0  0.8259334433120943  0.16301107335903958  0.5021974351301054  1.0000
  H   H34       1.0  0.1740665566369101  0.8369889262890309  0.5021974351301054  1.0000
  H   H35       1.0  0.6740665566114122  0.6630110734856717  0.5021974351301054  1.0000
  H   H36       1.0  0.3259334433375921  0.3369889267675925  0.5021974351301054  1.0000
  H   H37       1.0  0.2474237556951004  0.6165756936498887  0.3022137599622519  1.0000
  H   H38       1.0  0.752576244253904  0.3834243059981818  0.3022137599622519  1.0000
  H   H39       1.0  0.2525762442794018  0.11657569352325653  0.3022137599622519  1.0000
  H   H40       1.0  0.7474237556696026  0.8834243061248138  0.3022137599622519  1.0000
  H   H41       1.0  0.8875927354105714  0.24495337566688194  0.18998192435688177  1.0000
  H   H42       1.0  0.11240726453843299  0.7550466245863823  0.18998192435688177  1.0000
  H   H43       1.0  0.6124072645129351  0.7449533751883203  0.18998192435688177  1.0000
  H   H44       1.0  0.3875927354360692  0.25504662445975024  0.18998192435688177  1.0000
  H   H45       1.0  0.519007500115124  0.8384439428602345  0.6663463613351439  1.0000
  H   H46       1.0  0.48099249983388037  0.16155605739302975  0.6663463613351439  1.0000
  H   H47       1.0  0.9809924998083825  0.33844394273360234  0.6663463613351439  1.0000
  H   H48       1.0  0.01900750014062182  0.6615560575196618  0.6663463613351439  1.0000
  H   H49       1.0  0.24690314629789947  0.5931200790593513  0.10844180570301273  1.0000
  H   H50       1.0  0.7530968536511049  0.4068799211939129  0.10844180570301273  1.0000
  H   H51       1.0  0.25309685367660273  0.09312007893271919  0.10844180570301273  1.0000
  H   H52       1.0  0.7469031462724016  0.9068799213205451  0.10844180570301273  1.0000
  H   H53       1.0  0.9078816800400341  0.24917645539220037  0.38406326391412204  1.0000
  H   H54       1.0  0.09211831990897021  0.7508235442558701  0.38406326391412204  1.0000
  H   H55       1.0  0.5921183198834724  0.7491764555188325  0.38406326391412204  1.0000
  H   H56       1.0  0.407881680065532  0.2508235447344317  0.38406326391412204  1.0000
  H   H57       1.0  0.6684132460951695  0.9818770373490963  0.8304429833011052  1.0000
  H   H58       1.0  0.3315867538538348  0.01812296229897422  0.8304429833011052  1.0000
  H   H59       1.0  0.8315867544184967  0.4818770372224641  0.8304429833011052  1.0000
  H   H60       1.0  0.16841324612066735  0.5181229624256064  0.8304429833011052  1.0000
  H   H61       1.0  0.7824130702123169  0.9675744939348514  0.9504443747982473  1.0000
  H   H62       1.0  0.2175869297366875  0.03242550571321907  0.9504443747982473  1.0000
  H   H63       1.0  0.7175869297111896  0.46757449441341303  0.9504443747982473  1.0000
  H   H64       1.0  0.28241307023781465  0.5324255058398512  0.9504443747982473  1.0000
  H   H65       1.0  0.9128104609103059  0.9204914841302234  0.880755065625705  1.0000
  H   H66       1.0  0.0871895390386984  0.07950851612304079  0.880755065625705  1.0000
  H   H67       1.0  0.5871895390132006  0.4204914840035913  0.880755065625705  1.0000
  H   H68       1.0  0.4128104609358038  0.5795085156444791  0.880755065625705  1.0000
  H   H69       1.0  0.5334569417874101  0.7212529240069651  0.5430870528683437  1.0000
  H   H70       1.0  0.466543058751754  0.27874707624629913  0.5430870528683437  1.0000
  H   H71       1.0  0.9665430587262562  0.221252923880333  0.5430870528683437  1.0000
  H   H72       1.0  0.03345694181290789  0.7787470763729312  0.5430870528683437  1.0000
  H   H73       1.0  0.5741174103255082  0.587022211278472  0.6108636469404545  1.0000
  H   H74       1.0  0.4258825896234961  0.4129777889747922  0.6108636469404545  1.0000
  H   H75       1.0  0.9258825895979983  0.08702221115183986  0.6108636469404545  1.0000
  H   H76       1.0  0.07411741035100605  0.9129777891014244  0.6108636469404545  1.0000
  H   H77       1.0  0.816598966688778  0.9110822677121228  0.567482251305094  1.0000
  H   H78       1.0  0.18340103326022644  0.08891773254114146  0.567482251305094  1.0000
  H   H79       1.0  0.6834010332347286  0.41108226758549066  0.567482251305094  1.0000
  H   H80       1.0  0.31659896671427573  0.5889177326677736  0.567482251305094  1.0000
  H   H81       1.0  0.9276746060475185  0.8930015328092127  0.6878319171901761  1.0000
  H   H82       1.0  0.07232539390148583  0.10699846683885776  0.6878319171901761  1.0000
  H   H83       1.0  0.572325393875988  0.3930015326825806  0.6878319171901761  1.0000
  H   H84       1.0  0.42767460607301633  0.6069984669654899  0.6878319171901761  1.0000
  H   H85       1.0  0.5759292596825865  0.6806655637515437  0.9279380967832636  1.0000
  H   H86       1.0  0.4240707402664179  0.3193344358965267  0.9279380967832636  1.0000
  H   H87       1.0  0.9240707402409202  0.18066556423010544  0.9279380967832636  1.0000
  H   H88       1.0  0.07592925970808428  0.8193344360231587  0.9279380967832636  1.0000
  H   H89       1.0  0.5948109790820357  0.5672970795404618  0.8043985552302044  1.0000
  H   H90       1.0  0.40518902086696873  0.4327029207128023  0.8043985552302044  1.0000
  H   H91       1.0  0.9051890208414709  0.06729707941382977  0.8043985552302044  1.0000
  H   H92       1.0  0.09481097910753349  0.9327029208394344  0.8043985552302044  1.0000
  C   C1        1.0  0.76718691107  0.7252169208798628  0.7465186116336894  1.0000
  C   C2        1.0  0.2328130888790044  0.2747830793734014  0.7465186116336894  1.0000
  C   C3        1.0  0.7328130888535066  0.2252169207532307  0.7465186116336894  1.0000
  C   C4        1.0  0.2671869110954978  0.7747830795000334  0.7465186116336894  1.0000
  C   C5        1.0  0.4915848228194645  0.5420158942785975  0.2783045346191044  1.0000
  C   C6        1.0  0.5084151771295399  0.4579841059746667  0.2783045346191044  1.0000
  C   C7        1.0  0.008415177155037649  0.04201589415196541  0.2783045346191044  1.0000
  C   C8        1.0  0.9915848227939666  0.9579841061012988  0.2783045346191044  1.0000
  C   C9        1.0  0.4512113164945296  0.635326839831139  0.43636700639699894  1.0000
  C   C10       1.0  0.5487886834544747  0.36467316042212516  0.43636700639699894  1.0000
  C   C11       1.0  0.04878868347997255  0.13532683970450696  0.43636700639699894  1.0000
  C   C12       1.0  0.9512113164690318  0.8646731605487573  0.43636700639699894  1.0000
  C   C13       1.0  0.4760395560541832  0.5936739959816073  0.358496955011234  1.0000
  C   C14       1.0  0.5239604438948212  0.4063260042716569  0.358496955011234  1.0000
  C   C15       1.0  0.02396044392031902  0.09367399585497521  0.358496955011234  1.0000
  C   C16       1.0  0.9760395566188451  0.906326004398289  0.358496955011234  1.0000
  C   C17       1.0  0.5395716385827689  0.9822424866396775  0.5543873770102157  1.0000
  C   C18       1.0  0.46042836136623544  0.01775751300839294  0.5543873770102157  1.0000
  C   C19       1.0  0.9604283613407377  0.4822424871182392  0.5543873770102157  1.0000
  C   C20       1.0  0.039571638608266735  0.517757513135025  0.5543873770102157  1.0000
  C   C21       1.0  0.5185299611644651  0.9598349248519722  0.9393123045116344  1.0000
  C   C22       1.0  0.4814700393746989  0.04016507479609815  0.9393123045116344  1.0000
  C   C23       1.0  0.981470039349201  0.459834925330534  0.9393123045116344  1.0000
  C   C24       1.0  0.018529960599803278  0.5401650749227302  0.9393123045116344  1.0000
  C   C25       1.0  0.5414168325541998  0.9026845158964407  0.27373267831997755  1.0000
  C   C26       1.0  0.4585831679849642  0.09731548435682347  0.27373267831997755  1.0000
  C   C27       1.0  0.9585831679594663  0.4026845157698086  0.27373267831997755  1.0000
  C   C28       1.0  0.04141683198953799  0.5973154838782618  0.27373267831997755  1.0000
  C   C29       1.0  0.5955135553765737  0.9578683385829454  0.22115826120250226  1.0000
  C   C30       1.0  0.4044864445724306  0.04213166106512503  0.22115826120250226  1.0000
  C   C31       1.0  0.9044864445469328  0.4578683390615071  0.22115826120250226  1.0000
  C   C32       1.0  0.09551355540207156  0.5421316611917572  0.22115826120250226  1.0000
  C   C33       1.0  0.5940616107937597  0.9923729021982138  0.63823047775883  1.0000
  C   C34       1.0  0.40593838974540436  0.007627098055050391  0.63823047775883  1.0000
  C   C35       1.0  0.9059383897199065  0.49237290207158174  0.63823047775883  1.0000
  C   C36       1.0  0.09406161022909783  0.5076270981816825  0.63823047775883  1.0000
  C   C37       1.0  0.6877199229846842  0.054568588740752745  0.22252480872775815  1.0000
  C   C38       1.0  0.31228007696432014  0.9454314115125114  0.22252480872775815  1.0000
  C   C39       1.0  0.8122800769388223  0.5545685888673848  0.22252480872775815  1.0000
  C   C40       1.0  0.18771992301018206  0.44543141138587933  0.22252480872775815  1.0000
  C   C41       1.0  0.4435236546034875  0.8121441256860039  0.2730130730460142  1.0000
  C   C42       1.0  0.5564763453455168  0.18785587456726027  0.2730130730460142  1.0000
  C   C43       1.0  0.056476345371014654  0.3121441255593718  0.2730130730460142  1.0000
  C   C44       1.0  0.9435236545779897  0.6878558746938924  0.2730130730460142  1.0000
  C   C45       1.0  0.5435244923891268  0.8371524466226683  0.8755472695186938  1.0000
  C   C46       1.0  0.45647550755987754  0.16284755363059597  0.8755472695186938  1.0000
  C   C47       1.0  0.9564755075343798  0.33715244649603615  0.8755472695186938  1.0000
  C   C48       1.0  0.043524492414624624  0.6628475537572281  0.8755472695186938  1.0000
  C   C49       1.0  0.7936701243200599  0.15775642146793115  0.19867202775092874  1.0000
  C   C50       1.0  0.20632987562894448  0.8422435787853331  0.19867202775092874  1.0000
  C   C51       1.0  0.7063298756034466  0.6577564215945633  0.19867202775092874  1.0000
  C   C52       1.0  0.2936701243455577  0.3422435786587009  0.19867202775092874  1.0000
  C   C53       1.0  0.7601731985959468  0.11015287541442173  0.3748394591175037  1.0000
  C   C54       1.0  0.23982680135305764  0.8898471248388424  0.3748394591175037  1.0000
  C   C55       1.0  0.7398268013275598  0.6101528755410538  0.3748394591175037  1.0000
  C   C56       1.0  0.26017319862144456  0.38984712471221034  0.3748394591175037  1.0000
  C   C57       1.0  0.38861460702436273  0.7388528118743406  0.12022996457464963  1.0000
  C   C58       1.0  0.6113853929246416  0.26114718837892353  0.12022996457464963  1.0000
  C   C59       1.0  0.11138539295013943  0.23885281174770853  0.12022996457464963  1.0000
  C   C60       1.0  0.888614606998865  0.7611471885055556  0.12022996457464963  1.0000
  C   C61       1.0  0.5275026108633085  0.8995141659114934  0.3834361293768552  1.0000
  C   C62       1.0  0.4724973890856959  0.10048583373657703  0.3834361293768552  1.0000
  C   C63       1.0  0.9724973890601981  0.3995141657848613  0.3834361293768552  1.0000
  C   C64       1.0  0.027502610888806307  0.6004858338632091  0.3834361293768552  1.0000
  C   C65       1.0  0.6652220353091086  0.9532343897737872  0.6209232134756805  1.0000
  C   C66       1.0  0.3347779646398957  0.04676560987428332  0.6209232134756805  1.0000
  C   C67       1.0  0.8347779646143979  0.4532343902523488  0.6209232134756805  1.0000
  C   C68       1.0  0.1652220353346065  0.5467656100009154  0.6209232134756805  1.0000
  C   C69       1.0  0.5977785293668446  0.973500941182477  0.11220955992075796  1.0000
  C   C70       1.0  0.40222147058215973  0.026499058465593337  0.11220955992075796  1.0000
  C   C71       1.0  0.902221470556662  0.473500941055845  0.11220955992075796  1.0000
  C   C72       1.0  0.09777852939234243  0.5264990585922255  0.11220955992075796  1.0000
  C   C73       1.0  0.38869060779313397  0.7530927219686161  0.22997065388125634  1.0000
  C   C74       1.0  0.6113093921558703  0.24690727767945433  0.22997065388125634  1.0000
  C   C75       1.0  0.11130939218136819  0.253092721841984  0.22997065388125634  1.0000
  C   C76       1.0  0.8886906077676362  0.7469072778060865  0.22997065388125634  1.0000
  C   C77       1.0  0.5696646092039144  0.9345694286336846  0.47220194326032555  1.0000
  C   C78       1.0  0.43033539074509003  0.06543057161957956  0.47220194326032555  1.0000
  C   C79       1.0  0.9303353907195921  0.43456942850705255  0.47220194326032555  1.0000
  C   C80       1.0  0.06966460922941219  0.5654305717462116  0.47220194326032555  1.0000
  C   C81       1.0  0.33653433662263343  0.7091761937502877  0.29502876729937694  1.0000
  C   C82       1.0  0.6634656633263709  0.2908238065029764  0.29502876729937694  1.0000
  C   C83       1.0  0.16346566335186874  0.2091761936236557  0.29502876729937694  1.0000
  C   C84       1.0  0.8365343365971357  0.7908238066296085  0.29502876729937694  1.0000
  C   C85       1.0  0.5479067505390421  0.7680103462145863  0.8043388036569807  1.0000
  C   C86       1.0  0.45209324940996226  0.23198965403867794  0.8043388036569807  1.0000
  C   C87       1.0  0.9520932493844645  0.26801034608795415  0.8043388036569807  1.0000
  C   C88       1.0  0.047906750564539934  0.73198965416531  0.8043388036569807  1.0000
  C   C89       1.0  0.5637632580982173  0.9307004719973374  0.023090105431792674  1.0000
  C   C90       1.0  0.4362367418507871  0.06929952765073301  0.023090105431792674  1.0000
  C   C91       1.0  0.9362367418252893  0.4307004724758991  0.023090105431792674  1.0000
  C   C92       1.0  0.06376325812371511  0.569299527777365  0.023090105431792674  1.0000
  C   C93       1.0  0.337341974921046  0.6821925324165554  0.07700840121993337  1.0000
  C   C94       1.0  0.6626580250279583  0.31780746723151493  0.07700840121993337  1.0000
  C   C95       1.0  0.16265802505345617  0.18219253228992338  0.07700840121993337  1.0000
  C   C96       1.0  0.8373419748955483  0.8178074673581471  0.07700840121993337  1.0000
  C   C97       1.0  0.7477648042506458  0.10838096667045569  0.2648171574717224  1.0000
  C   C98       1.0  0.2522351956983586  0.8916190329776148  0.2648171574717224  1.0000
  C   C99       1.0  0.7522351956728608  0.6083809667970878  0.2648171574717224  1.0000
  C   C100      1.0  0.24776480427614359  0.39161903285098265  0.2648171574717224  1.0000
  C   C101      1.0  0.7335095386999889  0.9473933002674108  0.6902124524578842  1.0000
  C   C102      1.0  0.26649046124901543  0.052606699985853406  0.6902124524578842  1.0000
  C   C103      1.0  0.7664904612235176  0.44739330014077866  0.6902124524578842  1.0000
  C   C104      1.0  0.23350953872548674  0.5526067001124855  0.6902124524578842  1.0000
  C   C105      1.0  0.8171361117711801  0.1610889530978725  0.4171655454772941  1.0000
  C   C106      1.0  0.18286388817782437  0.838911046550198  0.4171655454772941  1.0000
  C   C107      1.0  0.6828638881523266  0.6610889532245046  0.4171655454772941  1.0000
  C   C108      1.0  0.31713611179667783  0.3389110470287596  0.4171655454772941  1.0000
  C   C109      1.0  0.28673274785099684  0.6511419809788738  0.2513815769162367  1.0000
  C   C110      1.0  0.7132672520980076  0.3488580186691967  0.2513815769162367  1.0000
  C   C111      1.0  0.2132672521235054  0.15114198085224165  0.2513815769162367  1.0000
  C   C112      1.0  0.786732747825499  0.8488580187958288  0.2513815769162367  1.0000
  C   C113      1.0  0.851149282661363  0.20795792099203128  0.24166606490241688  1.0000
  C   C114      1.0  0.14885071728764135  0.7920420792612329  0.24166606490241688  1.0000
  C   C115      1.0  0.6488507172621435  0.7079579205134696  0.24166606490241688  1.0000
  C   C116      1.0  0.3511492826868608  0.2920420791346008  0.24166606490241688  1.0000
  C   C117      1.0  0.5356801714200301  0.7788484457260426  0.6954466967461648  1.0000
  C   C118      1.0  0.46431982852897413  0.22115155452722163  0.6954466967461648  1.0000
  C   C119      1.0  0.964319829093636  0.2788484455994105  0.6954466967461648  1.0000
  C   C120      1.0  0.035680171445528014  0.7211515546538537  0.6954466967461648  1.0000
  C   C121      1.0  0.28696919180194863  0.6375555905993192  0.14254504513449776  1.0000
  C   C122      1.0  0.7130308081470557  0.362444409653945  0.14254504513449776  1.0000
  C   C123      1.0  0.21303080817255354  0.1375555904726871  0.14254504513449776  1.0000
  C   C124      1.0  0.7869691917764509  0.8624444097805771  0.14254504513449776  1.0000
  C   C125      1.0  0.8627956261860003  0.20987974228747064  0.35072990182795843  1.0000
  C   C126      1.0  0.1372043737630041  0.7901202579657935  0.35072990182795843  1.0000
  C   C127      1.0  0.6372043737375064  0.7098797418089089  0.35072990182795843  1.0000
  C   C128      1.0  0.3627956262114981  0.29012025783916146  0.35072990182795843  1.0000
  C   C129      1.0  0.7254688704116524  0.9632029692529783  0.7991790342891624  1.0000
  C   C130      1.0  0.274531129537352  0.03679703039509206  0.7991790342891624  1.0000
  C   C131      1.0  0.7745311295118542  0.4632029691263463  0.7991790342891624  1.0000
  C   C132      1.0  0.22546887043715017  0.5367970305217242  0.7991790342891624  1.0000
  C   C133      1.0  0.7895654377618395  0.954125819636503  0.8667473327490705  1.0000
  C   C134      1.0  0.21043456218716483  0.045874180616761136  0.8667473327490705  1.0000
  C   C135      1.0  0.710434562161667  0.45412581950987096  0.8667473327490705  1.0000
  C   C136      1.0  0.2895654377873374  0.5458741807433932  0.8667473327490705  1.0000
  C   C137      1.0  0.8626310123450769  0.9282134081832258  0.8277004126962175  1.0000
  C   C138      1.0  0.13736898760392757  0.0717865920700384  0.8277004126962175  1.0000
  C   C139      1.0  0.6373689875784297  0.42821340805659375  0.8277004126962175  1.0000
  C   C140      1.0  0.3626310123705746  0.5717865921966705  0.8277004126962175  1.0000
  C   C141      1.0  0.5457122268653737  0.7139641504572348  0.6269044475637604  1.0000
  C   C142      1.0  0.45428777308363066  0.28603584979602936  0.6269044475637604  1.0000
  C   C143      1.0  0.954287773058133  0.21396415033060276  0.6269044475637604  1.0000
  C   C144      1.0  0.04571222689087151  0.7860358493174677  0.6269044475637604  1.0000
  C   C145      1.0  0.5676781032579535  0.6377998873572844  0.6653264460420956  1.0000
  C   C146      1.0  0.4323218966910509  0.3622001128959798  0.6653264460420956  1.0000
  C   C147      1.0  0.9323218966655531  0.13779988723065228  0.6653264460420956  1.0000
  C   C148      1.0  0.0676781032834513  0.862200113022612  0.6653264460420956  1.0000
  C   C149      1.0  0.8077973547194128  0.9230566070485865  0.6514673377332305  1.0000
  C   C150      1.0  0.19220264522959155  0.07694339320467775  0.6514673377332305  1.0000
  C   C151      1.0  0.6922026452040937  0.42305660692195435  0.6514673377332305  1.0000
  C   C152      1.0  0.30779735474491066  0.5769433933313098  0.6514673377332305  1.0000
  C   C153      1.0  0.8713792880395664  0.9129691142537686  0.7197194472091204  1.0000
  C   C154      1.0  0.12862071190943797  0.08703088539430187  0.7197194472091204  1.0000
  C   C155      1.0  0.6286207124740998  0.4129691147323302  0.7197194472091204  1.0000
  C   C156      1.0  0.3713792880650642  0.587030885520934  0.7197194472091204  1.0000
  C   C157      1.0  0.5684460155449585  0.6909756280579792  0.8431957144491102  1.0000
  C   C158      1.0  0.43155398440404585  0.3090243715900913  0.8431957144491102  1.0000
  C   C159      1.0  0.9315539843785481  0.19097562793134706  0.8431957144491102  1.0000
  C   C160      1.0  0.06844601557045632  0.8090243717167234  0.8431957144491102  1.0000
  C   C161      1.0  0.5786121836064048  0.6264926482839855  0.7737652050725257  1.0000
  C   C162      1.0  0.4213878169327593  0.3735073519692787  0.7737652050725257  1.0000
  C   C163      1.0  0.9213878169072615  0.12649264815735345  0.7737652050725257  1.0000
  C   C164      1.0  0.07861218363190266  0.8735073520959108  0.7737652050725257  1.0000
  C   C165      1.0  0.9346596007594257  0.00027825841736944036  0.11151537490173508  1.0000
  C   C166      1.0  0.06534039918957871  0.9997217418358948  0.11151537490173508  1.0000
  C   C167      1.0  0.565340399164081  0.5002782585440015  0.11151537490173508  1.0000
  C   C168      1.0  0.4346596007849235  0.4997217417092626  0.11151537490173508  1.0000
  C   C169      1.0  0.008488028831541726  0.05553733089859448  0.15573421074834146  1.0000
  C   C170      1.0  0.9915119711174627  0.9444626693546697  0.15573421074834146  1.0000
  C   C171      1.0  0.49151197114296047  0.5555373310252266  0.15573421074834146  1.0000
  C   C172      1.0  0.5084880293962036  0.4444626692280376  0.15573421074834146  1.0000
  C   C173      1.0  0.933067048262628  0.07780459968997425  0.08940569012812534  1.0000
  C   C174      1.0  0.0669329516863764  0.9221953999580962  0.08940569012812534  1.0000
  C   C175      1.0  0.5669329516608786  0.5778045998166064  0.08940569012812534  1.0000
  C   C176      1.0  0.4330670482881258  0.4221954004366579  0.08940569012812534  1.0000
  N   N1        1.0  0.6460539485774942  0.003906288619917459  0.28004218328648056  1.0000
  N   N2        1.0  0.3539460513715102  0.9960937110281529  0.28004218328648056  1.0000
  N   N3        1.0  0.8539460513460123  0.5039062887465495  0.28004218328648056  1.0000
  N   N4        1.0  0.14605394860299203  0.4960937109015208  0.28004218328648056  1.0000
  N   N5        1.0  0.49380408598860503  0.8538249512751905  0.21493052848599783  1.0000
  N   N6        1.0  0.5061959139603994  0.14617504837287987  0.21493052848599783  1.0000
  N   N7        1.0  0.006195913985897187  0.35382495114855844  0.21493052848599783  1.0000
  N   N8        1.0  0.9938040859631073  0.6461750484995119  0.21493052848599783  1.0000
  N   N9        1.0  0.5082593796846769  0.9069776207785689  0.8569387286636687  1.0000
  N   N10       1.0  0.49174062026432747  0.09302237886950156  0.8569387286636687  1.0000
  N   N11       1.0  0.9917406202388296  0.40697762065193677  0.8569387286636687  1.0000
  N   N12       1.0  0.00825937971017468  0.5930223789961336  0.8569387286636687  1.0000
  S   S1        1.0  0.592826852069907  0.8329993303243938  0.9961561496861561  1.0000
  S   S2        1.0  0.40717314787909736  0.16700066932367666  0.9961561496861561  1.0000
  S   S3        1.0  0.9071731478535995  0.3329993301977616  0.9961561496861561  1.0000
  S   S4        1.0  0.09282685209540484  0.6670006694503088  0.9961561496861561  1.0000
  S   S5        1.0  0.4512634004504788  0.8327013214079838  0.40796494481487533  1.0000
  S   S6        1.0  0.5487365994985255  0.16729867884528044  0.40796494481487533  1.0000
  S   S7        1.0  0.048736599524023365  0.3327013212813517  0.40796494481487533  1.0000
  S   S8        1.0  0.9512634004249809  0.6672986789719125  0.40796494481487533  1.0000
  S   S9        1.0  0.6648837315609243  0.050133473927542686  0.08794228620506998  1.0000
  S   S10       1.0  0.3351162683880801  0.9498665263257215  0.08794228620506998  1.0000
  S   S11       1.0  0.8351162683625822  0.550133473448981  0.08794228620506998  1.0000
  S   S12       1.0  0.16488373158642208  0.44986652619908946  0.08794228620506998  1.0000
  S   S13       1.0  0.6647244527638716  0.9035886439350681  0.5003401593651039  1.0000
  S   S14       1.0  0.3352755471851327  0.09641135631819611  0.5003401593651039  1.0000
  S   S15       1.0  0.8352755471596348  0.40358864380843595  0.5003401593651039  1.0000
  S   S16       1.0  0.16472445278936948  0.5964113564448282  0.5003401593651039  1.0000
  Cl  Cl1       1.0  0.8029020182004865  0.6770662584666136  0.8626293722419055  1.0000
  Cl  Cl2       1.0  0.19709798174851792  0.3229337417866506  0.8626293722419055  1.0000
  Cl  Cl3       1.0  0.6970979817230201  0.17706625833998152  0.8626293722419055  1.0000
  Cl  Cl4       1.0  0.3029020182259842  0.8229337419132827  0.8626293722419055  1.0000
  Cl  Cl5       1.0  0.8203179118703421  0.6965061744795488  0.6319224783649144  1.0000
  Cl  Cl6       1.0  0.1796820880786623  0.3034938251685217  0.6319224783649144  1.0000
  Cl  Cl7       1.0  0.6796820880531644  0.19650617495811043  0.6319224783649144  1.0000
  Cl  Cl8       1.0  0.3203179118958399  0.8034938252951538  0.6319224783649144  1.0000
