data_image0
_chemical_formula_structural       H68C60N12O22S8
_chemical_formula_sum              "H68 C60 N12 O22 S8"
_cell_length_a       8.49181280210818
_cell_length_b       14.454966951471356
_cell_length_c       15.194603360336245
_cell_angle_alpha    65.39657141365993
_cell_angle_beta     79.25969689511516
_cell_angle_gamma    84.14362132711094

_space_group_name_H-M_alt    "P 1"
_space_group_IT_number       1

loop_
  _space_group_symop_operation_xyz
  'x, y, z'

loop_
  _atom_site_type_symbol
  _atom_site_label
  _atom_site_symmetry_multiplicity
  _atom_site_fract_x
  _atom_site_fract_y
  _atom_site_fract_z
  _atom_site_occupancy
  H   H1        1.0  0.6495125634703374  0.09021400452113568  0.6165511487734472  1.0000
  H   H2        1.0  0.350487435714252  0.9097859953581213  0.3834488513878189  1.0000
  H   H3        1.0  0.7977817921024306  0.35642222406086704  0.6369047423150781  1.0000
  H   H4        1.0  0.20221820828071563  0.64357777581478  0.36309525771115236  1.0000
  H   H5        1.0  0.8220174348113953  0.25498498173063255  0.8103291169023452  1.0000
  H   H6        1.0  0.17798256437319399  0.7450150181486246  0.1896708832589209  1.0000
  H   H7        1.0  0.7175869398657383  0.8171618184270955  0.22022869341833246  1.0000
  H   H8        1.0  0.2824130593188511  0.18283818145216166  0.7797713067429337  1.0000
  H   H9        1.0  0.6006451581577612  0.8020880589358818  0.14292538204013022  1.0000
  H   H10       1.0  0.39935484102682806  0.19791194094337536  0.8570746181211358  1.0000
  H   H11       1.0  0.6706439480237495  0.9883776061490338  0.791159331866859  1.0000
  H   H12       1.0  0.32935605116084  0.01162239373022344  0.20884066829440703  1.0000
  H   H13       1.0  0.6330908902770093  0.9861153611167216  0.1100064366871367  1.0000
  H   H14       1.0  0.36690911007895155  0.013884639520083219  0.8899935630387428  1.0000
  H   H15       1.0  0.8416131735808112  0.9722046009183234  0.0841691148047201  1.0000
  H   H16       1.0  0.15838682680233485  0.02779539895732372  0.9158308852215103  1.0000
  H   H17       1.0  0.07104635756276159  0.43036816685584567  0.6239753956545779  1.0000
  H   H18       1.0  0.9289536416218279  0.5696318330234115  0.3760246045066881  1.0000
  H   H19       1.0  0.05822608152671894  0.23292852831236144  0.65428585718776  1.0000
  H   H20       1.0  0.9417739188564274  0.7670714715632858  0.34571414283847035  1.0000
  H   H21       1.0  0.9030867327117347  0.6315480612090378  0.11890752051075588  1.0000
  H   H22       1.0  0.09691326647285475  0.3684519386702192  0.8810924796505102  1.0000
  H   H23       1.0  0.8241218744618767  0.10385225434214428  0.9372781444660859  1.0000
  H   H24       1.0  0.17587812592126953  0.8961477455335028  0.06272185556014467  1.0000
  H   H25       1.0  0.3465929727449257  0.4972509069883826  0.5404638431206986  1.0000
  H   H26       1.0  0.6534070264396636  0.5027490928908745  0.4595361570405674  1.0000
  H   H27       1.0  0.32203642458566567  0.7584031560830383  0.711444768186045  1.0000
  H   H28       1.0  0.6779635757702951  0.24159684455376654  0.28855523153983453  1.0000
  H   H29       1.0  0.7931995955560478  0.7863183612656375  0.9051389097852995  1.0000
  H   H30       1.0  0.20680040482709844  0.2136816386100097  0.09486109024093074  1.0000
  H   H31       1.0  0.13911673128612143  0.6127830231063268  0.7846741846502132  1.0000
  H   H32       1.0  0.8608832690970248  0.38721697676932026  0.21532581537601714  1.0000
  H   H33       1.0  0.9753005303136042  0.9332223516457673  0.8294060546113052  1.0000
  H   H34       1.0  0.024699468870985182  0.06677764823348985  0.1705939455499609  1.0000
  H   H35       1.0  0.7846911930446948  0.3502528153964518  0.8987924725791152  1.0000
  H   H36       1.0  0.21530880733845145  0.6497471844791953  0.1012075274471152  1.0000
  H   H37       1.0  0.8285449403898434  0.2921064400415691  0.017741440796565144  1.0000
  H   H38       1.0  0.17145505999330285  0.707893559834078  0.9822585592296652  1.0000
  H   H39       1.0  0.7190525312984704  0.43952101348958544  0.053386773845153515  1.0000
  H   H40       1.0  0.28094746908467594  0.5604789863860616  0.946613226181077  1.0000
  H   H41       1.0  0.6202060425607513  0.4889528954869682  0.9508110495038954  1.0000
  H   H42       1.0  0.3797939566238382  0.511047104392289  0.049188950657370646  1.0000
  H   H43       1.0  0.2612981454072839  0.15592753020974  0.29933839708679677  1.0000
  H   H44       1.0  0.7387018549758625  0.8440724696659072  0.7006616029394337  1.0000
  H   H45       1.0  0.974252611239016  0.190428050099495  0.39315273106199633  1.0000
  H   H46       1.0  0.02574738914413037  0.8095719497761521  0.606847268964234  1.0000
  H   H47       1.0  0.49198234272348745  0.16782768364753714  0.012891179859786888  1.0000
  H   H48       1.0  0.5080176564339165  0.8321723169928775  0.9871088200011285  1.0000
  H   H49       1.0  0.7367688138974334  0.6310756607030352  0.9253557442569593  1.0000
  H   H50       1.0  0.26323118648571275  0.36892433917261186  0.07464425576927114  1.0000
  H   H51       1.0  0.44335088099611464  0.05119607064529547  0.41943393611654306  1.0000
  H   H52       1.0  0.5566491193870315  0.9488039292303518  0.5805660639096873  1.0000
  H   H53       1.0  0.1342993574321954  0.41285265868822885  0.29113910780289365  1.0000
  H   H54       1.0  0.8657006429509508  0.5871473411874183  0.7088608922233367  1.0000
  H   H55       1.0  0.2152922966008786  0.4065627226754455  0.3931831308616023  1.0000
  H   H56       1.0  0.7847077037822676  0.5934372772002017  0.6068168691646281  1.0000
  H   H57       1.0  0.3850463327131837  0.35004883185626906  0.22785681448167275  1.0000
  H   H58       1.0  0.6149536676699624  0.6499511680193781  0.7721431855445575  1.0000
  H   H59       1.0  0.42832088198751816  0.30913973530983296  0.3481510088044339  1.0000
  H   H60       1.0  0.5716791183956279  0.6908602645658142  0.6518489912217964  1.0000
  H   H61       1.0  0.6277677676763561  0.43469539483902914  0.2839719791688643  1.0000
  H   H62       1.0  0.37223223270679007  0.5653046050366181  0.7160280208573662  1.0000
  H   H63       1.0  0.5671342378272779  0.4817375317836173  0.1672105513107185  1.0000
  H   H64       1.0  0.4328657625558684  0.5182624680920298  0.8327894487155119  1.0000
  H   H65       1.0  0.4475920960876932  0.5452020979633215  0.3357719208626921  1.0000
  H   H66       1.0  0.5524079042954532  0.4547979019123256  0.6642280791635383  1.0000
  H   H67       1.0  0.46909324248346523  0.6234043525534235  0.20743449553144933  1.0000
  H   H68       1.0  0.5309067578996809  0.3765956473222235  0.7925655044947811  1.0000
  C   C1        1.0  0.7267176448965332  0.2281350818966152  0.6151823918089214  1.0000
  C   C2        1.0  0.2732823554594275  0.7718649187401895  0.3848176079169581  1.0000
  C   C3        1.0  0.7128560912251797  0.9708548414941319  0.9758484990186485  1.0000
  C   C4        1.0  0.2871439091368428  0.029145158379599547  0.02415150035251737  1.0000
  C   C5        1.0  0.4228774750301567  0.3577185579844045  0.5352170417105995  1.0000
  C   C6        1.0  0.5771225253258041  0.6422814426524001  0.4647829580152801  1.0000
  C   C7        1.0  0.6886500221616992  0.1254335249960545  0.6593547535621104  1.0000
  C   C8        1.0  0.31134997819426163  0.8745664756407502  0.3406452461637693  1.0000
  C   C9        1.0  0.7522118302734235  0.11435070286946464  0.811862903647391  1.0000
  C   C10       1.0  0.24778817008253715  0.8856492977673402  0.18813709607848847  1.0000
  C   C11       1.0  0.7720276578448648  0.2756586523512587  0.6698329515684192  1.0000
  C   C12       1.0  0.22797234133972458  0.7243413475279985  0.33016704859284685  1.0000
  C   C13       1.0  0.8518910223742187  0.7690759852147652  0.1139958987476502  1.0000
  C   C14       1.0  0.14810897800892758  0.2309240146608819  0.8860041012785803  1.0000
  C   C15       1.0  0.785160630589854  0.21890937750163997  0.7675265709201656  1.0000
  C   C16       1.0  0.21483936856754998  0.7810906231387748  0.23247342894074977  1.0000
  C   C17       1.0  0.714811589559462  0.8307084736335697  0.1437473357906582  1.0000
  C   C18       1.0  0.28518841079649876  0.16929152700323513  0.8562526639352215  1.0000
  C   C19       1.0  0.7016916947225975  0.06787656912813068  0.7574780987108264  1.0000
  C   C20       1.0  0.2983083044348063  0.9321234315122842  0.24252190115008895  1.0000
  C   C21       1.0  0.7285909823149823  0.9440668906349259  0.0808990545881531  1.0000
  C   C22       1.0  0.271409018068164  0.05593310924072121  0.9191009454380773  1.0000
  C   C23       1.0  0.16460413104870122  0.3826225080454179  0.6034447663869456  1.0000
  C   C24       1.0  0.835395869334445  0.6173774918302294  0.39655523363928474  1.0000
  C   C25       1.0  0.15760482174037985  0.28373761478403536  0.6186554967537895  1.0000
  C   C26       1.0  0.8423951786427663  0.7162623850916118  0.3813445032724409  1.0000
  C   C27       1.0  0.8734701019316293  0.5094477088657806  0.9184653813207124  1.0000
  C   C28       1.0  0.12652989725296002  0.49055229101347647  0.08153461884055371  1.0000
  C   C29       1.0  0.9565845944977116  0.6893864483416507  0.8519248513804251  1.0000
  C   C30       1.0  0.043415405885434646  0.3106135515339964  0.1480751486458054  1.0000
  C   C31       1.0  0.1602850175739832  0.8535235066222067  0.7679074368525868  1.0000
  C   C32       1.0  0.8397149828091631  0.14647649325344053  0.23209256317364357  1.0000
  C   C33       1.0  0.2633301943048573  0.03792651924264459  0.5377739952882195  1.0000
  C   C34       1.0  0.7366698060571653  0.962073480631087  0.46222600408294656  1.0000
  C   C35       1.0  0.2073792030626501  0.7637760699025061  0.7551853879011725  1.0000
  C   C36       1.0  0.7926207961219393  0.23622392997675098  0.24481461226009368  1.0000
  C   C37       1.0  0.9094832962028825  0.7806041637990615  0.8628807490444755  1.0000
  C   C38       1.0  0.09051670418026372  0.21939583607658575  0.13711925098175476  1.0000
  C   C39       1.0  0.5842088053108316  0.2891306596810224  0.007652114471757925  1.0000
  C   C40       1.0  0.4157911950723145  0.7108693401946246  0.9923478855544725  1.0000
  C   C41       1.0  0.1053443473146571  0.6819479270836177  0.7958996832288935  1.0000
  C   C42       1.0  0.894655653068489  0.31805207279202957  0.20410031679733703  1.0000
  C   C43       1.0  0.010576738737990735  0.8626697557739808  0.8206939748383887  1.0000
  C   C44       1.0  0.9894232604194132  0.13733024486643386  0.17930602502252668  1.0000
  C   C45       1.0  0.7405146021979865  0.34287834761866354  0.9740038240179246  1.0000
  C   C46       1.0  0.25948539818515975  0.6571216522569835  0.025996176008305893  1.0000
  C   C47       1.0  0.7285573025354063  0.4464553052500812  0.9776235918670457  1.0000
  C   C48       1.0  0.27144269664918314  0.5535446946291759  0.02237640829422047  1.0000
  C   C49       1.0  0.2206158241903384  0.1288550135454451  0.37776136110828773  1.0000
  C   C50       1.0  0.7793841761928079  0.8711449863302021  0.6222386389179426  1.0000
  C   C51       1.0  0.07617468866424888  0.14607245751094558  0.4246655048510586  1.0000
  C   C52       1.0  0.9238253117188975  0.8539275423647015  0.575334495175172  1.0000
  C   C53       1.0  0.24100354758002862  0.4283470494768011  0.31324096503082466  1.0000
  C   C54       1.0  0.7589964527759321  0.5716529511600037  0.686759034695055  1.0000
  C   C55       1.0  0.39671822667729606  0.3758823020305489  0.2846573575151647  1.0000
  C   C56       1.0  0.6032817737058501  0.6241176978450982  0.7153426425110656  1.0000
  C   C57       1.0  0.5236563497979677  0.4592544372965989  0.24575803231556734  1.0000
  C   C58       1.0  0.4763436493866218  0.5407455625826582  0.7542419678456987  1.0000
  C   C59       1.0  0.43307357838570004  0.5482900801373035  0.263800104459379  1.0000
  C   C60       1.0  0.5669264219974463  0.4517099197383436  0.7361998955668514  1.0000
  N   N1        1.0  0.7716029475641144  0.06254920836745936  0.9103908301426036  1.0000
  N   N2        1.0  0.2283970515932895  0.9374507922729552  0.08960916971831165  1.0000
  N   N3        1.0  0.5724010411942679  0.38614538927553027  0.4924413922154083  1.0000
  N   N4        1.0  0.42759895918887825  0.6138546106001168  0.5075586078108221  1.0000
  N   N5        1.0  0.31303690150447666  0.4228311050100818  0.5567718197043107  1.0000
  N   N6        1.0  0.6869630976801128  0.5771688948691753  0.4432281804569555  1.0000
  N   N7        1.0  0.3525409648097082  0.9810354816018453  0.6057425241389509  1.0000
  N   N8        1.0  0.647459035573438  0.018964518273801894  0.39425747588727955  1.0000
  N   N9        1.0  0.8479823514594799  0.6104300696597805  0.8976589080563703  1.0000
  N   N10       1.0  0.1520176489236664  0.38956993021586656  0.10234109196986017  1.0000
  N   N11       1.0  0.32286084900430356  0.06852829912229262  0.44133357425420455  1.0000
  N   N12       1.0  0.6771391501802859  0.9314717007569645  0.5586664259070615  1.0000
  O   O1        1.0  0.647317067791367  0.9144846374374195  0.9502430154350787  1.0000
  O   O2        1.0  0.3526829313932224  0.08551536244183769  0.04975698472618738  1.0000
  O   O3        1.0  0.9861911922186671  0.8031203190076891  0.07380771249413957  1.0000
  O   O4        1.0  0.013808808164479179  0.19687968086795804  0.9261922875320908  1.0000
  O   O5        1.0  0.6625916673325727  0.23138110899391717  0.45346758003884563  1.0000
  O   O6        1.0  0.3374083330505736  0.7686188908817299  0.5465324199873849  1.0000
  O   O7        1.0  0.8117814395369009  0.673689672339706  0.13738200036402656  1.0000
  O   O8        1.0  0.18821856081905994  0.32631032829709866  0.8626179993618529  1.0000
  O   O9        1.0  0.8559820006017624  0.3573198072134311  0.44045640128943125  1.0000
  O   O10       1.0  0.1440179997813838  0.642680192662216  0.559543598736799  1.0000
  O   O11       1.0  0.004218274902455603  0.47298721148716055  0.892612203634292  1.0000
  O   O12       1.0  0.9957817254806907  0.5270127883884866  0.10738779639193853  1.0000
  O   O13       1.0  0.5955705447806587  0.20562543108048875  0.9898389060402898  1.0000
  O   O14       1.0  0.4044294556024875  0.7943745687951583  0.010161093985940624  1.0000
  O   O15       1.0  0.20435317650525328  0.040582882694849436  0.7354357047860308  1.0000
  O   O16       1.0  0.7956468238778929  0.9594171171807977  0.2645642952401995  1.0000
  O   O17       1.0  0.459582478793867  0.3185462898432817  0.04576930175664332  1.0000
  O   O18       1.0  0.5404175215892794  0.6814537100323653  0.9542306982695871  1.0000
  O   O19       1.0  0.4380027506676471  0.9173132864044178  0.7654090298147038  1.0000
  O   O20       1.0  0.5619972497154991  0.08268671347122926  0.23459097021152656  1.0000
  O   O21       1.0  0.2670535368339177  0.5363334057196077  0.263169733701445  1.0000
  O   O22       1.0  0.7329464635492284  0.4636665941560394  0.7368302663247854  1.0000
  S   S1        1.0  0.7109970601849483  0.30068228734808267  0.4902981806383825  1.0000
  S   S2        1.0  0.28900294019819783  0.6993177125275645  0.509701819387848  1.0000
  S   S3        1.0  0.33774337949494376  0.24023245526984685  0.5729803807916918  1.0000
  S   S4        1.0  0.6622566208670787  0.7597675446038846  0.42701961857947396  1.0000
  S   S5        1.0  0.29421347576832513  0.9550915382364787  0.7211886637944479  1.0000
  S   S6        1.0  0.7057865246148212  0.044908461639168416  0.27881133623178256  1.0000
  S   S7        1.0  0.0679201440175737  0.08678787231241536  0.5508762458606469  1.0000
  S   S8        1.0  0.9320798563383871  0.9132121283243892  0.4491237538652328  1.0000
