data_image0
_chemical_formula_structural       H8C16Cl4I2
_chemical_formula_sum              "H8 C16 Cl4 I2"
_cell_length_a       5.446680053630196
_cell_length_b       6.4412394931569406
_cell_length_c       12.153371988044947
_cell_angle_alpha    87.22867498318772
_cell_angle_beta     85.36234540212634
_cell_angle_gamma    82.98461601806814

_space_group_name_H-M_alt    "P 1"
_space_group_IT_number       1

loop_
  _space_group_symop_operation_xyz
  'x, y, z'

loop_
  _atom_site_type_symbol
  _atom_site_label
  _atom_site_symmetry_multiplicity
  _atom_site_fract_x
  _atom_site_fract_y
  _atom_site_fract_z
  _atom_site_occupancy
  H   H1        1.0  0.33865217808681347  0.4151446082046909  0.04790400962357534  1.0000
  H   H2        1.0  0.6613478219287464  0.5848553907554869  0.9520959898927406  1.0000
  H   H3        1.0  0.037416977815557174  0.4026753239293628  0.9057547757339389  1.0000
  H   H4        1.0  0.9625830240360372  0.5973246750355176  0.09424522377814042  1.0000
  H   H5        1.0  0.027186471129291873  0.07626014925634177  0.8061335575161636  1.0000
  H   H6        1.0  0.9728135307223027  0.9237398497085386  0.1938664419959159  1.0000
  H   H7        1.0  0.3220328302371312  0.7614231537772829  0.8453530250508543  1.0000
  H   H8        1.0  0.6779671696475887  0.23857684512203792  0.15464697529159543  1.0000
  C   C1        1.0  0.8214457469797526  0.41891787404012487  0.5758885319374041  1.0000
  C   C2        1.0  0.17855425280472456  0.5810821264842535  0.424111467578911  1.0000
  C   C3        1.0  0.94106784440937  0.5888926853341384  0.603014894769236  1.0000
  C   C4        1.0  0.058932155244267245  0.41110731512938303  0.39698510557321304  1.0000
  C   C5        1.0  0.8800600110329206  0.330837118682792  0.47209829704907064  1.0000
  C   C6        1.0  0.1199399886207164  0.6691628817807296  0.5279017032933784  1.0000
  C   C7        1.0  0.5022406829819522  0.09405953650322216  0.02921523863013952  1.0000
  C   C8        1.0  0.4977593169027677  0.9059404623960986  0.9707847617123102  1.0000
  C   C9        1.0  0.33289790710724415  0.2721712559770664  0.004072190875829731  1.0000
  C   C10       1.0  0.6671020926772331  0.7278287445473122  0.9959278086404852  1.0000
  C   C11       1.0  0.1659091345092992  0.26518333989665  0.9252234504912947  1.0000
  C   C12       1.0  0.8340908651443381  0.7348166605668714  0.0747765498511543  1.0000
  C   C13       1.0  0.16133523281372777  0.07977671788511075  0.8676940537916973  1.0000
  C   C14       1.0  0.8386647668399093  0.9202232825784108  0.1323059465507517  1.0000
  C   C15       1.0  0.3242174294880179  0.9040358897141476  0.8899870956984849  1.0000
  C   C16       1.0  0.6757825701656193  0.0959641107493738  0.11001290464396396  1.0000
  Cl  Cl1       1.0  0.8723505345175718  0.7008862462583769  0.7285875759921858  1.0000
  Cl  Cl2       1.0  0.12764946526690527  0.2991137542660015  0.2714124235241293  1.0000
  Cl  Cl3       1.0  0.7315313933669119  0.1286524783473569  0.43396382661785965  1.0000
  Cl  Cl4       1.0  0.26846860628672536  0.8713475221161645  0.5660361737245894  1.0000
  I   I1        1.0  0.5641732685998385  0.2951403118693323  0.6908993330651985  1.0000
  I   I2        1.0  0.43582673312091597  0.704859687034691  0.30910066727301483  1.0000
