data_image0
_chemical_formula_structural       H96C86O22
_chemical_formula_sum              "H96 C86 O22"
_cell_length_a       9.689077460934534
_cell_length_b       11.99745835820264
_cell_length_c       16.41545023443194
_cell_angle_alpha    90.0
_cell_angle_beta     105.28987147483149
_cell_angle_gamma    90.0

_space_group_name_H-M_alt    "P 1"
_space_group_IT_number       1

loop_
  _space_group_symop_operation_xyz
  'x, y, z'

loop_
  _atom_site_type_symbol
  _atom_site_label
  _atom_site_symmetry_multiplicity
  _atom_site_fract_x
  _atom_site_fract_y
  _atom_site_fract_z
  _atom_site_occupancy
  H   H1        1.0  0.27245655777320255  0.28601831134124295  0.12664660057847685  1.0000
  H   H2        1.0  0.7275434425126942  0.7860183114161488  0.8733533994846778  1.0000
  H   H3        1.0  0.5252870699925275  0.671826266810024  0.19997689275363917  1.0000
  H   H4        1.0  0.4747129302933693  0.17182626673511817  0.8000231073095155  1.0000
  H   H5        1.0  0.43196792602805495  0.556325879258973  0.10386738088026369  1.0000
  H   H6        1.0  0.5680320742578419  0.056325879184067264  0.8961326191828909  1.0000
  H   H7        1.0  0.18616818715592795  0.6978020377354491  0.2837883050273891  1.0000
  H   H8        1.0  0.8138318120600347  0.19780203849405326  0.716211694864812  1.0000
  H   H9        1.0  0.3076709485986846  0.40528874323415026  0.031067053938760737  1.0000
  H   H10       1.0  0.6923290516872121  0.9052887424755461  0.968932946124394  1.0000
  H   H11       1.0  0.29005237239676007  0.8975492407221173  0.26403197402821277  1.0000
  H   H12       1.0  0.7099476268192025  0.3975492406472115  0.7359680258639884  1.0000
  H   H13       1.0  0.25526859920540906  0.5521770346859083  0.31959697606473864  1.0000
  H   H14       1.0  0.7447314010804876  0.05217703461100246  0.6804030239984161  1.0000
  H   H15       1.0  0.4012331266563639  0.4652569647123354  0.3172851153370071  1.0000
  H   H16       1.0  0.5987668725595987  0.9652569639537314  0.6827148845551939  1.0000
  H   H17       1.0  0.23057295064943636  0.43556696710076104  0.25006221609072626  1.0000
  H   H18       1.0  0.7694270496364604  0.9355669671756669  0.7499377839724285  1.0000
  H   H19       1.0  0.6433721801735129  0.45967574759110913  0.4265264595997004  1.0000
  H   H20       1.0  0.3566278201123839  0.959675747666015  0.5734735404634543  1.0000
  H   H21       1.0  0.832364184627181  0.30514045147712826  0.12373449867575509  1.0000
  H   H22       1.0  0.16763581458878168  0.8051404515520341  0.876265501216446  1.0000
  H   H23       1.0  0.5370349769250029  0.8156320753811712  0.2991599749673626  1.0000
  H   H24       1.0  0.4629650233608939  0.31563207530626547  0.7008400250957921  1.0000
  H   H25       1.0  0.997235597986223  0.5733869711910033  0.33592638688635607  1.0000
  H   H26       1.0  0.002764402299673736  0.07338697111609753  0.6640736131767987  1.0000
  H   H27       1.0  0.028758989951210408  0.6632157163987887  0.0643516812080877  1.0000
  H   H28       1.0  0.9712410103346865  0.16321571632388288  0.9356483188550669  1.0000
  H   H29       1.0  0.0532841962367653  0.47291869082594634  0.0010935795591851094  1.0000
  H   H30       1.0  0.9467158040491315  0.972918690900852  0.9989064205039696  1.0000
  H   H31       1.0  0.18352340917971768  0.5740268758917145  0.9964383884169287  1.0000
  H   H32       1.0  0.8164765911061791  0.07402687665031853  0.00356161164622594  1.0000
  H   H33       1.0  0.5516649321436714  0.814571928338335  0.16355306658132532  1.0000
  H   H34       1.0  0.44833506814222546  0.31457192826342917  0.8364469334818294  1.0000
  H   H35       1.0  0.49169279017411266  0.9542696176288429  0.16234545122431557  1.0000
  H   H36       1.0  0.5083072101117841  0.45426961755393713  0.837654548838839  1.0000
  H   H37       1.0  0.4609059064478982  0.8789289635492222  0.06625773927488907  1.0000
  H   H38       1.0  0.5390940938457623  0.37892896347431637  0.9337422601803079  1.0000
  H   H39       1.0  0.6895723471047736  0.31632722254087103  0.27076565189866253  1.0000
  H   H40       1.0  0.310427652111189  0.8163272226157768  0.7292343479935385  1.0000
  H   H41       1.0  0.5944845631700567  0.7611826319660691  0.7300700438598348  1.0000
  H   H42       1.0  0.40551543711584004  0.2611826318911632  0.2699299562033199  1.0000
  H   H43       1.0  0.8088924575197419  0.33904680212696225  0.5325377933903289  1.0000
  H   H44       1.0  0.1911075427661549  0.839046802201868  0.4674622066728258  1.0000
  H   H45       1.0  0.042174351998172425  0.19804445150463995  0.14255830434948766  1.0000
  H   H46       1.0  0.9578256472177902  0.6980444515795458  0.8574416955427134  1.0000
  H   H47       1.0  0.8537839385314888  0.22514773374088806  0.3525177153512739  1.0000
  H   H48       1.0  0.1462160606844737  0.7251477338157939  0.6474822845409273  1.0000
  H   H49       1.0  0.6475184612128843  0.8272031311710909  0.5971821773678304  1.0000
  H   H50       1.0  0.35248153907301255  0.32720313192969497  0.4028178226953243  1.0000
  H   H51       1.0  0.042603135654106145  0.45933828611559324  0.17910191852413343  1.0000
  H   H52       1.0  0.9573968646395544  0.9593382861904991  0.8208980809310635  1.0000
  H   H53       1.0  0.8976537058573345  0.5059777520169216  0.09775651736017035  1.0000
  H   H54       1.0  0.10234629335862808  0.005977751942015839  0.9022434825320306  1.0000
  H   H55       1.0  0.9556537010990906  0.5875579009766242  0.18962134112523077  1.0000
  H   H56       1.0  0.04434629811687182  0.0875579009017184  0.8103786587669702  1.0000
  H   H57       1.0  0.06704611554238919  0.334285769557014  0.5394454247160859  1.0000
  H   H58       1.0  0.9329538847435075  0.8342857696319198  0.46055457534706873  1.0000
  H   H59       1.0  0.21425625739801318  0.9137269605528596  0.02442641890667467  1.0000
  H   H60       1.0  0.7857437418179494  0.41372696131146364  0.9755735809855264  1.0000
  H   H61       1.0  0.23003580464338363  0.0032664176719735603  0.11235010646687629  1.0000
  H   H62       1.0  0.7699641956425132  0.5032664177468794  0.8876498935962784  1.0000
  H   H63       1.0  0.09946086818562348  0.8952519066387565  0.09248109725249687  1.0000
  H   H64       1.0  0.9005391321002733  0.3952519065638507  0.9075189028106577  1.0000
  H   H65       1.0  0.8869486927544343  0.975476255935368  0.2044331211308503  1.0000
  H   H66       1.0  0.11305130646152813  0.47547625586046227  0.7955668787613508  1.0000
  H   H67       1.0  0.7854642124030261  0.8938027888772339  0.25924442776377066  1.0000
  H   H68       1.0  0.21453578788287067  0.3938027896358379  0.740755572299384  1.0000
  H   H69       1.0  0.7922704635898684  0.8564441811940023  0.15414394702784728  1.0000
  H   H70       1.0  0.2077295356260942  0.3564441811190965  0.8458560528643538  1.0000
  H   H71       1.0  0.1625933233072669  0.44893753736744807  0.44099179172424435  1.0000
  H   H72       1.0  0.8374066759086957  0.9489375374423538  0.5590082081679566  1.0000
  H   H73       1.0  0.23634189321803264  0.0324231998466612  0.37817701884922345  1.0000
  H   H74       1.0  0.7636581070678641  0.5324231999215671  0.6218229812139313  1.0000
  H   H75       1.0  0.41991173650056474  0.610029348007376  0.725146229296083  1.0000
  H   H76       1.0  0.5800882637853321  0.11002934793247011  0.2748537707670717  1.0000
  H   H77       1.0  0.23592870690614223  0.08045793793816608  0.230131232484447  1.0000
  H   H78       1.0  0.7640712933797547  0.5804579371795621  0.7698687675787077  1.0000
  H   H79       1.0  0.04378574430602053  0.1053577818118275  0.4382170683794551  1.0000
  H   H80       1.0  0.9562142549099422  0.6053577818867333  0.561782931512746  1.0000
  H   H81       1.0  0.3326427266313656  0.6003795624825238  0.45354239447093275  1.0000
  H   H82       1.0  0.6673572736545311  0.10037956240761799  0.546457605592222  1.0000
  H   H83       1.0  0.28948913330950743  0.5265075903081795  0.5862247740743138  1.0000
  H   H84       1.0  0.7105108669763893  0.02650759023327368  0.4137752259888408  1.0000
  H   H85       1.0  0.6232287732074834  0.1741870934331025  0.021783766390944  1.0000
  H   H86       1.0  0.3767712270784135  0.6741870935080083  0.9782162336722108  1.0000
  H   H87       1.0  0.5579761839082044  0.03746722235486401  0.02436088492152229  1.0000
  H   H88       1.0  0.4420238153077583  0.5374672224297699  0.9756391149706789  1.0000
  H   H89       1.0  0.6436718664723421  0.10666444440084845  0.12207908551588394  1.0000
  H   H90       1.0  0.3563281338135546  0.6066644444757542  0.8779209145472708  1.0000
  H   H91       1.0  0.22182337575134872  0.21115367558396084  0.9856360088709473  1.0000
  H   H92       1.0  0.7781766234646138  0.7111536756588667  0.014363991021253754  1.0000
  H   H93       1.0  0.3102070976382972  0.1059007534817851  0.9393564159751385  1.0000
  H   H94       1.0  0.6897929015776654  0.6059007535566909  0.06064358391706266  1.0000
  H   H95       1.0  0.3688410627406816  0.2443849082414525  0.9420718932480522  1.0000
  H   H96       1.0  0.6311589375452152  0.7443849083163583  0.05792810681510248  1.0000
  C   C1        1.0  0.5999505181936732  0.39690339468812114  0.15041248168456406  1.0000
  C   C2        1.0  0.4000494810222894  0.8969033947630268  0.849587518207637  1.0000
  C   C3        1.0  0.22075915829294837  0.6551320150760255  0.16025865419492497  1.0000
  C   C4        1.0  0.7792408419929483  0.15513201500111962  0.8397413458682296  1.0000
  C   C5        1.0  0.47390839172886323  0.6511105658190657  0.24990493188184085  1.0000
  C   C6        1.0  0.5260916085570334  0.15111056574415982  0.7500950681813138  1.0000
  C   C7        1.0  0.7160114296570905  0.5928425002731621  0.3082776235801793  1.0000
  C   C8        1.0  0.2839885706288062  0.09284250019825627  0.6917223764829754  1.0000
  C   C9        1.0  0.3843540743408696  0.5017694306798044  0.14270470229970758  1.0000
  C   C10       1.0  0.6156459248750931  0.001769430604898578  0.8572952975924933  1.0000
  C   C11       1.0  0.8109196910573818  0.5237510306259041  0.37468030507031597  1.0000
  C   C12       1.0  0.1890803092285149  0.02375103055099823  0.6253196949928387  1.0000
  C   C13       1.0  0.9827898408446529  0.8221699409572057  0.2526639512073513  1.0000
  C   C14       1.0  0.017210159441243825  0.3221699408822999  0.7473360488558033  1.0000
  C   C15       1.0  0.18590065609502646  0.7367427821874258  0.22366777138051072  1.0000
  C   C16       1.0  0.8140993441908704  0.23674278211252003  0.7763322286826438  1.0000
  C   C17       1.0  0.4917032106844311  0.719344100419359  0.5174529269095407  1.0000
  C   C18       1.0  0.5082967896014656  0.21934410034445329  0.482547073153614  1.0000
  C   C19       1.0  0.26193808930473267  0.4388481637363039  0.08105126820301467  1.0000
  C   C20       1.0  0.738061910981164  0.9388481638112096  0.91894873186014  1.0000
  C   C21       1.0  0.5244669708793158  0.7633940095102021  0.4402018038462341  1.0000
  C   C22       1.0  0.475533029406581  0.26339400943529623  0.5597981962169205  1.0000
  C   C23       1.0  0.308962672788542  0.8197328431047253  0.23362364142043102  1.0000
  C   C24       1.0  0.6910373274973547  0.3197328430298194  0.7663763586427236  1.0000
  C   C25       1.0  0.3034038805511521  0.5029977733470598  0.2780022052028108  1.0000
  C   C26       1.0  0.6965961197347447  0.0029977741056638326  0.7219977948603438  1.0000
  C   C27       1.0  0.7572066795564059  0.45786620098950276  0.4301947131454976  1.0000
  C   C28       1.0  0.24279332072949084  0.9578662010644086  0.5698052869176571  1.0000
  C   C29       1.0  0.8220727436926089  0.28768140775752327  0.18730169335025995  1.0000
  C   C30       1.0  0.1779272565932879  0.7876814078324291  0.8126983067128947  1.0000
  C   C31       1.0  0.34285189378040426  0.5749218487834236  0.21009564111962545  1.0000
  C   C32       1.0  0.6571481065054925  0.07492184870851774  0.7899043589435293  1.0000
  C   C33       1.0  0.44220119814276976  0.761890908648204  0.2885504371612842  1.0000
  C   C34       1.0  0.5577988010731928  0.26189090857329816  0.7114495627309169  1.0000
  C   C35       1.0  0.9327608119842643  0.2184676480421362  0.2404905959806526  1.0000
  C   C36       1.0  0.06723918723169844  0.7184676481170421  0.7595094039115485  1.0000
  C   C37       1.0  0.9575332318791291  0.5211486285947561  0.3790242056498322  1.0000
  C   C38       1.0  0.042466767336833494  0.02114862851985024  0.6209757942423688  1.0000
  C   C39       1.0  0.09192465460436573  0.5953940231946041  0.1016427299712855  1.0000
  C   C40       1.0  0.9080753456815311  0.09539402311969827  0.8983572700918693  1.0000
  C   C41       1.0  0.31844060154567805  0.8360129329511268  0.14185907315661767  1.0000
  C   C42       1.0  0.6815593987402186  0.3360129328762209  0.858140926906537  1.0000
  C   C43       1.0  0.14353625517601126  0.5207293847974594  0.03962604530276752  1.0000
  C   C44       1.0  0.8564637440399514  0.0207293847225537  0.9603739545894335  1.0000
  C   C45       1.0  0.46520936182661693  0.8717529794841358  0.1334891337687253  1.0000
  C   C46       1.0  0.5347906373893456  0.37175297940922997  0.8665108661234758  1.0000
  C   C47       1.0  0.7078267537041347  0.3303545527449337  0.20901161404976948  1.0000
  C   C48       1.0  0.29217324658176197  0.8303545528198395  0.7909883860133853  1.0000
  C   C49       1.0  0.538775249565858  0.7251262150913864  0.6696070237233707  1.0000
  C   C50       1.0  0.4612247507200388  0.22512621501648059  0.330392976339784  1.0000
  C   C51       1.0  0.849431098966019  0.3899268662017543  0.48904965643986936  1.0000
  C   C52       1.0  0.1505689013198778  0.8899268662766601  0.5109503436232854  1.0000
  C   C53       1.0  0.04172795687000078  0.17597800442095435  0.20695978884439808  1.0000
  C   C54       1.0  0.958272043415896  0.6759780044958602  0.7930402112187566  1.0000
  C   C55       1.0  0.9355613444420579  0.19198583493521434  0.3246507477873181  1.0000
  C   C56       1.0  0.06443865584383869  0.6919858350101202  0.6753492522758365  1.0000
  C   C57       1.0  0.5668513177940018  0.7633846516948508  0.5955883116415082  1.0000
  C   C58       1.0  0.43314868249189487  0.263384651619945  0.40441168842164643  1.0000
  C   C59       1.0  0.9931974969107827  0.5339592085868857  0.1457729259002764  1.0000
  C   C60       1.0  0.0068025023051799865  0.03395920851197994  0.8542270739919248  1.0000
  C   C61       1.0  0.9953656481430253  0.38720031620896894  0.4930171456952485  1.0000
  C   C62       1.0  0.004634352142871363  0.8872003154503648  0.5069828543679061  1.0000
  C   C63       1.0  0.20769594002925126  0.9172338391552958  0.09012746640424117  1.0000
  C   C64       1.0  0.7923040602566456  0.4172338390803899  0.9098725336589135  1.0000
  C   C65       1.0  0.8522836731937391  0.8906096825661953  0.21503781233436223  1.0000
  C   C66       1.0  0.1477163270921576  0.3906096824912894  0.7849621877287924  1.0000
  C   C67       1.0  0.04890400791163675  0.4526521057926455  0.43781877834572985  1.0000
  C   C68       1.0  0.9510959923820237  0.9526521058675512  0.5621812211094671  1.0000
  C   C69       1.0  0.15101137750969318  0.08359009634022531  0.3392729377225146  1.0000
  C   C70       1.0  0.8489886227762036  0.5835900964151312  0.6607270623406402  1.0000
  C   C71       1.0  0.4393260469797899  0.6398193593021968  0.6663803001156149  1.0000
  C   C72       1.0  0.5606739533061069  0.139819359227291  0.33361969994753976  1.0000
  C   C73       1.0  0.15005777845640508  0.10966690699955144  0.2561998037935267  1.0000
  C   C74       1.0  0.8499422218294918  0.6096669070744573  0.743800196269628  1.0000
  C   C75       1.0  0.043116463042725726  0.1249538056512652  0.3733081717946136  1.0000
  C   C76       1.0  0.9568835372431711  0.624953805726171  0.6266918282685411  1.0000
  C   C77       1.0  0.3904456666814476  0.634576292135642  0.5143133521766855  1.0000
  C   C78       1.0  0.6095543336044491  0.13457629289424614  0.4856866478864692  1.0000
  C   C79       1.0  0.36580712478869104  0.5939080659636868  0.5887830768853399  1.0000
  C   C80       1.0  0.6341928754972057  0.093908065888781  0.41121692317781483  1.0000
  C   C81       1.0  0.4302274875891023  0.16121668792270466  0.060791165448376656  1.0000
  C   C82       1.0  0.5697725126967944  0.6612166879976106  0.939208834614778  1.0000
  C   C83       1.0  0.5736482476422559  0.11727924348560047  0.058442759319046564  1.0000
  C   C84       1.0  0.426351752643641  0.6172792435605063  0.9415572407441082  1.0000
  C   C85       1.0  0.32457777777875046  0.1824365965399278  0.977496290256185  1.0000
  C   C86       1.0  0.6754222225071463  0.6824365966148336  0.022503709806969512  1.0000
  O   O1        1.0  0.578317695001647  0.5922451362493811  0.314573358463125  1.0000
  O   O2        1.0  0.42168230421431546  0.09224513617447533  0.6854266414290761  1.0000
  O   O3        1.0  0.28462716010221467  0.7244824395708223  0.10572799831607901  1.0000
  O   O4        1.0  0.7153728401836822  0.2244824394959163  0.8942720017470757  1.0000
  O   O5        1.0  0.4941354591261622  0.4251702083643809  0.18705922444292  1.0000
  O   O6        1.0  0.5058645400898004  0.9251702084392868  0.8129407754492811  1.0000
  O   O7        1.0  0.4166790727647442  0.7395910746323533  0.3700361505531767  1.0000
  O   O8        1.0  0.5833209275211526  0.23959107455744746  0.6299638495099779  1.0000
  O   O9        1.0  0.04811439367120611  0.789769678468757  0.19192500166594878  1.0000
  O   O10       1.0  0.9518856066146907  0.2897696783938511  0.808074998397206  1.0000
  O   O11       1.0  0.600658598857874  0.4252077046395559  0.07820376574457691  1.0000
  O   O12       1.0  0.39934140142802277  0.9252077047144618  0.9217962343185777  1.0000
  O   O13       1.0  0.20406393892235003  0.34899105335400904  0.11851694682705523  1.0000
  O   O14       1.0  0.7959360613635468  0.8489910534289149  0.8814830532360994  1.0000
  O   O15       1.0  0.7535447885403024  0.6430329716231464  0.2525936293162577  1.0000
  O   O16       1.0  0.24645521174559434  0.14303297154824063  0.747406370746897  1.0000
  O   O17       1.0  0.02989225906726161  0.799988624543796  0.32729045481828195  1.0000
  O   O18       1.0  0.9701077412186351  0.2999886244688902  0.6727095452448728  1.0000
  O   O19       1.0  0.6324935363158464  0.8156116235494021  0.43885670083374334  1.0000
  O   O20       1.0  0.36750646290011624  0.31561162347449623  0.5611432990584577  1.0000
  O   O21       1.0  0.40051213604508723  0.17827140517122142  0.12872543484130214  1.0000
  O   O22       1.0  0.5994878642408095  0.6782714052461273  0.8712745652218526  1.0000
