data_image0
_chemical_formula_structural       H88C112N16O40S8Br8
_chemical_formula_sum              "H88 C112 N16 O40 S8 Br8"
_cell_length_a       7.819382739085382
_cell_length_b       16.11480530207351
_cell_length_c       23.975162923474212
_cell_angle_alpha    90.0
_cell_angle_beta     90.0
_cell_angle_gamma    90.0

_space_group_name_H-M_alt    "P 1"
_space_group_IT_number       1

loop_
  _space_group_symop_operation_xyz
  'x, y, z'

loop_
  _atom_site_type_symbol
  _atom_site_label
  _atom_site_symmetry_multiplicity
  _atom_site_fract_x
  _atom_site_fract_y
  _atom_site_fract_z
  _atom_site_occupancy
  H   H1        1.0  0.947403742365796  0.8004749780216214  0.24632223225552222  1.0000
  H   H2        1.0  0.552596257809656  0.19952502184970755  0.7463222321830678  1.0000
  H   H3        1.0  0.447403742307312  0.6995250224059193  0.7536777680166673  1.0000
  H   H4        1.0  0.05259625775117199  0.3004749780859569  0.2536777676720234  1.0000
  H   H5        1.0  0.05259625775117199  0.19952502184970755  0.7536777680166673  1.0000
  H   H6        1.0  0.447403742307312  0.8004749780216214  0.2536777676720234  1.0000
  H   H7        1.0  0.552596257809656  0.3004749780859569  0.24632223225552222  1.0000
  H   H8        1.0  0.947403742365796  0.6995250224059193  0.7463222321830678  1.0000
  H   H9        1.0  0.8857476428900475  0.8639310428534083  0.15313513913205876  1.0000
  H   H10       1.0  0.6142523572854046  0.13606895701792063  0.6531351390596044  1.0000
  H   H11       1.0  0.38574764283156343  0.6360689569535851  0.8468648607230325  1.0000
  H   H12       1.0  0.11425235722692062  0.3639310429177438  0.34686486079548684  1.0000
  H   H13       1.0  0.11425235722692062  0.13606895701792063  0.8468648607230325  1.0000
  H   H14       1.0  0.38574764283156343  0.8639310428534083  0.34686486079548684  1.0000
  H   H15       1.0  0.6142523572854046  0.3639310429177438  0.15313513913205876  1.0000
  H   H16       1.0  0.8857476428900475  0.6360689569535851  0.6531351390596044  1.0000
  H   H17       1.0  0.7389234154147355  0.01642459248117279  0.32941020735535254  1.0000
  H   H18       1.0  0.7610765847607166  0.9835754080107035  0.8294102072828982  1.0000
  H   H19       1.0  0.23892341535625147  0.483575408075039  0.6705897924997387  1.0000
  H   H20       1.0  0.26107658470223255  0.5164245924168372  0.1705897925721931  1.0000
  H   H21       1.0  0.26107658470223255  0.9835754080107035  0.6705897924997387  1.0000
  H   H22       1.0  0.23892341535625147  0.01642459248117279  0.1705897925721931  1.0000
  H   H23       1.0  0.7610765847607166  0.5164245924168372  0.32941020735535254  1.0000
  H   H24       1.0  0.7389234154147355  0.483575408075039  0.8294102072828982  1.0000
  H   H25       1.0  0.8815650787297687  0.8780117249185402  0.3331296006410053  1.0000
  H   H26       1.0  0.61843492016681  0.12198827495278868  0.8331296009856493  1.0000
  H   H27       1.0  0.3815650799501581  0.6219882748884531  0.666870399214086  1.0000
  H   H28       1.0  0.11843492010832593  0.3780117249828758  0.16687039928654038  1.0000
  H   H29       1.0  0.11843492010832593  0.12198827495278868  0.666870399214086  1.0000
  H   H30       1.0  0.3815650799501581  0.8780117249185402  0.16687039928654038  1.0000
  H   H31       1.0  0.61843492016681  0.3780117249828758  0.3331296006410053  1.0000
  H   H32       1.0  0.8815650787297687  0.6219882748884531  0.8331296009856493  1.0000
  H   H33       1.0  0.13897201560018616  0.38232702874835484  0.9988854093063099  1.0000
  H   H34       1.0  0.36102798445829787  0.617672971122974  0.4988854093787642  1.0000
  H   H35       1.0  0.6389720156586702  0.1176729711873096  0.0011145905487814586  1.0000
  H   H36       1.0  0.861027984516782  0.8823270293045667  0.5011145904763271  1.0000
  H   H37       1.0  0.861027984516782  0.617672971122974  0.0011145905487814586  1.0000
  H   H38       1.0  0.6389720156586702  0.38232702874835484  0.5011145904763271  1.0000
  H   H39       1.0  0.36102798445829787  0.8823270293045667  0.9988854093063099  1.0000
  H   H40       1.0  0.13897201560018616  0.1176729711873096  0.4988854093787642  1.0000
  H   H41       1.0  0.5978099788662816  0.4190153770664029  0.9486807014658686  1.0000
  H   H42       1.0  0.9021900213091705  0.5809846234254734  0.44868070153832296  1.0000
  H   H43       1.0  0.09780997880779765  0.08098462286926157  0.051319298389222626  1.0000
  H   H44       1.0  0.40219002125068637  0.9190153770020674  0.5513192987338665  1.0000
  H   H45       1.0  0.40219002125068637  0.5809846234254734  0.051319298389222626  1.0000
  H   H46       1.0  0.09780997880779765  0.4190153770664029  0.5513192987338665  1.0000
  H   H47       1.0  0.9021900213091705  0.9190153770020674  0.9486807014658686  1.0000
  H   H48       1.0  0.5978099788662816  0.08098462286926157  0.44868070153832296  1.0000
  H   H49       1.0  0.7570044014359592  0.4934986672769001  0.9277861181173018  1.0000
  H   H50       1.0  0.7429955987394931  0.5065013325944288  0.4277861181897562  1.0000
  H   H51       1.0  0.25700440137747504  0.006501332658764386  0.0722138817377894  1.0000
  H   H52       1.0  0.24299559868100895  0.9934986672125645  0.572213881665335  1.0000
  H   H53       1.0  0.24299559868100895  0.5065013325944288  0.0722138817377894  1.0000
  H   H54       1.0  0.25700440137747504  0.4934986672769001  0.572213881665335  1.0000
  H   H55       1.0  0.7429955987394931  0.9934986672125645  0.9277861181173018  1.0000
  H   H56       1.0  0.7570044014359592  0.006501332658764386  0.4277861181897562  1.0000
  H   H57       1.0  0.648810677170333  0.5033805992652133  0.993951768172043  1.0000
  H   H58       1.0  0.8511893230051191  0.4966194012266629  0.4939517682444974  1.0000
  H   H59       1.0  0.14881067711184898  0.9966194011623275  0.006048231683048233  1.0000
  H   H60       1.0  0.3511893229466351  0.0033805993295488524  0.5060482316105939  1.0000
  H   H61       1.0  0.3511893229466351  0.4966194012266629  0.006048231683048233  1.0000
  H   H62       1.0  0.14881067711184898  0.5033805992652133  0.5060482316105939  1.0000
  H   H63       1.0  0.8511893230051191  0.0033805993295488524  0.993951768172043  1.0000
  H   H64       1.0  0.648810677170333  0.9966194011623275  0.4939517682444974  1.0000
  H   H65       1.0  0.8044984418726392  0.24594887345551875  0.10951777547376568  1.0000
  H   H66       1.0  0.6955015583028129  0.7540511264158102  0.6095177754013112  1.0000
  H   H67       1.0  0.30449844181415525  0.2540511264801457  0.8904822247984239  1.0000
  H   H68       1.0  0.1955015582443288  0.7459488733911832  0.39048222487087825  1.0000
  H   H69       1.0  0.1955015582443288  0.7540511264158102  0.8904822247984239  1.0000
  H   H70       1.0  0.30449844181415525  0.24594887345551875  0.39048222487087825  1.0000
  H   H71       1.0  0.6955015583028129  0.7459488733911832  0.10951777547376568  1.0000
  H   H72       1.0  0.8044984418726392  0.2540511264801457  0.6095177754013112  1.0000
  H   H73       1.0  0.38923217107492536  0.31328120168789186  0.04667931156806613  1.0000
  H   H74       1.0  0.11076782898355866  0.6867187981834371  0.5466793114956118  1.0000
  H   H75       1.0  0.8892321711334095  0.1867187982477726  0.9533206882870251  1.0000
  H   H76       1.0  0.6107678290420426  0.8132812022441037  0.4533206883594795  1.0000
  H   H77       1.0  0.6107678290420426  0.6867187981834371  0.9533206882870251  1.0000
  H   H78       1.0  0.8892321711334095  0.31328120168789186  0.4533206883594795  1.0000
  H   H79       1.0  0.11076782898355866  0.8132812022441037  0.04667931156806613  1.0000
  H   H80       1.0  0.38923217107492536  0.1867187982477726  0.5466793114956118  1.0000
  H   H81       1.0  0.06826692436114698  0.1809779023284098  0.1521233140997355  1.0000
  H   H82       1.0  0.43173307569733704  0.8190220975429191  0.6521233140272811  1.0000
  H   H83       1.0  0.5682669231407577  0.31902209760725464  0.8478766857553558  1.0000
  H   H84       1.0  0.9317330757558211  0.6809779022640743  0.3478766858278101  1.0000
  H   H85       1.0  0.9317330757558211  0.8190220975429191  0.8478766857553558  1.0000
  H   H86       1.0  0.5682669231407577  0.1809779023284098  0.3478766858278101  1.0000
  H   H87       1.0  0.43173307569733704  0.6809779022640743  0.1521233140997355  1.0000
  H   H88       1.0  0.06826692436114698  0.31902209760725464  0.6521233140272811  1.0000
  C   C1        1.0  0.8889916240131619  0.8619293134253866  0.2438926608617459  1.0000
  C   C2        1.0  0.6110083761622902  0.1380706864459423  0.7438926607892915  1.0000
  C   C3        1.0  0.38899162395467785  0.6380706863816068  0.7561073394104437  1.0000
  C   C4        1.0  0.11100837610380616  0.3619293134897222  0.25610733906579974  1.0000
  C   C5        1.0  0.11100837610380616  0.1380706864459423  0.7561073394104437  1.0000
  C   C6        1.0  0.38899162395467785  0.8619293134253866  0.25610733906579974  1.0000
  C   C7        1.0  0.6110083761622902  0.3619293134897222  0.2438926608617459  1.0000
  C   C8        1.0  0.8889916240131619  0.6380706863816068  0.7438926607892915  1.0000
  C   C9        1.0  0.7762829423425822  0.9742715276851553  0.19095615052181583  1.0000
  C   C10       1.0  0.72371705783287  0.02572847218617353  0.6909561504493615  1.0000
  C   C11       1.0  0.27628294228409817  0.5257284727423853  0.8090438493332753  1.0000
  C   C12       1.0  0.22371705777438589  0.47427152774949094  0.30904384940572976  1.0000
  C   C13       1.0  0.22371705777438589  0.02572847218617353  0.8090438493332753  1.0000
  C   C14       1.0  0.27628294228409817  0.9742715276851553  0.30904384940572976  1.0000
  C   C15       1.0  0.72371705783287  0.47427152774949094  0.19095615052181583  1.0000
  C   C16       1.0  0.7762829423425822  0.5257284727423853  0.6909561504493615  1.0000
  C   C17       1.0  0.7329945318254636  0.017445471088864267  0.23955745153150046  1.0000
  C   C18       1.0  0.7670054683499886  0.9825545287824647  0.7395574518761443  1.0000
  C   C19       1.0  0.23299453176697948  0.48255452884680017  0.7604425483235907  1.0000
  C   C20       1.0  0.2670054682915045  0.5174454710245288  0.2604425483960452  1.0000
  C   C21       1.0  0.2670054682915045  0.9825545287824647  0.7604425483235907  1.0000
  C   C22       1.0  0.23299453176697948  0.017445471088864267  0.2604425483960452  1.0000
  C   C23       1.0  0.7670054683499886  0.5174454710245288  0.23955745153150046  1.0000
  C   C24       1.0  0.7329945318254636  0.48255452884680017  0.7395574518761443  1.0000
  C   C25       1.0  0.8539316417680587  0.8967527084016693  0.19153592218152748  1.0000
  C   C26       1.0  0.6460683584073934  0.10324729146965964  0.6915359221090731  1.0000
  C   C27       1.0  0.3539316417095747  0.6032472914053241  0.8084640776735638  1.0000
  C   C28       1.0  0.14606835834890936  0.39675270846600486  0.3084640777460181  1.0000
  C   C29       1.0  0.14606835834890936  0.10324729146965964  0.8084640776735638  1.0000
  C   C30       1.0  0.3539316417095747  0.8967527084016693  0.3084640777460181  1.0000
  C   C31       1.0  0.6460683584073934  0.39675270846600486  0.19153592218152748  1.0000
  C   C32       1.0  0.8539316417680587  0.6032472914053241  0.6915359221090731  1.0000
  C   C33       1.0  0.6432148019638052  0.09745587616860157  0.22811774950005098  1.0000
  C   C34       1.0  0.856785198211647  0.9025441237027274  0.7281177494275966  1.0000
  C   C35       1.0  0.1432148019053211  0.4025441237670629  0.7718822503550403  1.0000
  C   C36       1.0  0.35678519815316295  0.5974558761042661  0.27188225042749464  1.0000
  C   C37       1.0  0.35678519815316295  0.9025441237027274  0.7718822503550403  1.0000
  C   C38       1.0  0.1432148019053211  0.09745587616860157  0.27188225042749464  1.0000
  C   C39       1.0  0.856785198211647  0.5974558761042661  0.22811774950005098  1.0000
  C   C40       1.0  0.6432148019638052  0.4025441237670629  0.7281177494275966  1.0000
  C   C41       1.0  0.7703817003213486  0.9829289230048525  0.29133870632266085  1.0000
  C   C42       1.0  0.7296182998541035  0.017071076866476503  0.7913387062502065  1.0000
  C   C43       1.0  0.2703817002628645  0.5170710768021409  0.7086612939495287  1.0000
  C   C44       1.0  0.22961829979561957  0.48292892306918794  0.20866129360488475  1.0000
  C   C45       1.0  0.22961829979561957  0.017071076866476503  0.7086612939495287  1.0000
  C   C46       1.0  0.2703817002628645  0.9829289230048525  0.20866129360488475  1.0000
  C   C47       1.0  0.7296182998541035  0.48292892306918794  0.29133870632266085  1.0000
  C   C48       1.0  0.7703817003213486  0.5170710768021409  0.7913387062502065  1.0000
  C   C49       1.0  0.8490652371847667  0.9050524555902246  0.2929263656066247  1.0000
  C   C50       1.0  0.6509347629906854  0.09494754428110437  0.7929263655341703  1.0000
  C   C51       1.0  0.3490652371262826  0.5949475442167688  0.7070736346655648  1.0000
  C   C52       1.0  0.15093476293220143  0.40505245565456005  0.2070736343209209  1.0000
  C   C53       1.0  0.15093476293220143  0.09494754428110437  0.7070736346655648  1.0000
  C   C54       1.0  0.3490652371262826  0.9050524555902246  0.2070736343209209  1.0000
  C   C55       1.0  0.6509347629906854  0.40505245565456005  0.2929263656066247  1.0000
  C   C56       1.0  0.8490652371847667  0.5949475442167688  0.7929263655341703  1.0000
  C   C57       1.0  0.9530634781117888  0.3200954410126369  0.051713095087503075  1.0000
  C   C58       1.0  0.5469365220636633  0.679904558858692  0.5517130950150487  1.0000
  C   C59       1.0  0.45306347805330477  0.1799045589230275  0.9482869047675881  1.0000
  C   C60       1.0  0.046936522005179275  0.8200954415688487  0.4482869048400425  1.0000
  C   C61       1.0  0.046936522005179275  0.679904558858692  0.9482869047675881  1.0000
  C   C62       1.0  0.45306347805330477  0.3200954410126369  0.4482869048400425  1.0000
  C   C63       1.0  0.5469365220636633  0.8200954415688487  0.051713095087503075  1.0000
  C   C64       1.0  0.9530634781117888  0.1799045589230275  0.5517130950150487  1.0000
  C   C65       1.0  0.7987061509065498  0.36287650271812916  0.02888968230208928  1.0000
  C   C66       1.0  0.7012938492689023  0.6371234971531997  0.5288896822296348  1.0000
  C   C67       1.0  0.29870615084806584  0.1371234972175353  0.9711103175530019  1.0000
  C   C68       1.0  0.20129384921041824  0.862876503274341  0.4711103176254563  1.0000
  C   C69       1.0  0.20129384921041824  0.6371234971531997  0.9711103175530019  1.0000
  C   C70       1.0  0.29870615084806584  0.36287650271812916  0.4711103176254563  1.0000
  C   C71       1.0  0.7012938492689023  0.862876503274341  0.02888968230208928  1.0000
  C   C72       1.0  0.7987061509065498  0.1371234972175353  0.5288896822296348  1.0000
  C   C73       1.0  0.11816528501430998  0.3384043956955729  0.03263120181902949  1.0000
  C   C74       1.0  0.38183471504417404  0.661595604175756  0.5326312017465751  1.0000
  C   C75       1.0  0.618165285072794  0.16159560424009156  0.9673687980360618  1.0000
  C   C76       1.0  0.8818347151026581  0.8384043956312374  0.46736879810851617  1.0000
  C   C77       1.0  0.8818347151026581  0.661595604175756  0.9673687980360618  1.0000
  C   C78       1.0  0.618165285072794  0.3384043956955729  0.46736879810851617  1.0000
  C   C79       1.0  0.38183471504417404  0.8384043956312374  0.03263120181902949  1.0000
  C   C80       1.0  0.11816528501430998  0.16159560424009156  0.5326312017465751  1.0000
  C   C81       1.0  0.6999922669906583  0.46024382801855385  0.9628134821723657  1.0000
  C   C82       1.0  0.8000077319059203  0.539756171852775  0.46281348224482005  1.0000
  C   C83       1.0  0.19999226821104762  0.03975617191711061  0.03718651768272556  1.0000
  C   C84       1.0  0.3000077318474364  0.9602438279542183  0.5371865176102713  1.0000
  C   C85       1.0  0.3000077318474364  0.539756171852775  0.03718651768272556  1.0000
  C   C86       1.0  0.19999226821104762  0.46024382801855385  0.5371865176102713  1.0000
  C   C87       1.0  0.8000077319059203  0.9602438279542183  0.9628134821723657  1.0000
  C   C88       1.0  0.6999922669906583  0.03975617191711061  0.46281348224482005  1.0000
  C   C89       1.0  0.9316087257869751  0.2622350069259759  0.09453275905712065  1.0000
  C   C90       1.0  0.5683912731096037  0.7377649929453529  0.5945327594017645  1.0000
  C   C91       1.0  0.4316087270073644  0.23776499300968854  0.9054672407979707  1.0000
  C   C92       1.0  0.06839127305111962  0.7622350068616404  0.40546724087042496  1.0000
  C   C93       1.0  0.06839127305111962  0.7377649929453529  0.9054672407979707  1.0000
  C   C94       1.0  0.4316087270073644  0.2622350069259759  0.40546724087042496  1.0000
  C   C95       1.0  0.5683912731096037  0.7622350068616404  0.09453275905712065  1.0000
  C   C96       1.0  0.9316087257869751  0.23776499300968854  0.5945327594017645  1.0000
  C   C97       1.0  0.25688691640063566  0.3004564044827151  0.058272286384844704  1.0000
  C   C98       1.0  0.2431130836578484  0.6995435953886138  0.5582722863123903  1.0000
  C   C99       1.0  0.7568869164591197  0.19954359545294936  0.9417277134702465  1.0000
  C   C100      1.0  0.7431130837163324  0.8004564044183795  0.4417277135427009  1.0000
  C   C101      1.0  0.7431130837163324  0.6995435953886138  0.9417277134702465  1.0000
  C   C102      1.0  0.7568869164591197  0.3004564044827151  0.4417277135427009  1.0000
  C   C103      1.0  0.2431130836578484  0.8004564044183795  0.058272286384844704  1.0000
  C   C104      1.0  0.25688691640063566  0.19954359545294936  0.5582722863123903  1.0000
  C   C105      1.0  0.07553102971259366  0.2257026443584772  0.1180387986948415  1.0000
  C   C106      1.0  0.4244689703458904  0.7742973555128517  0.6180387986223871  1.0000
  C   C107      1.0  0.5755310297710777  0.27429735557718726  0.8819612011602498  1.0000
  C   C108      1.0  0.9244689704043744  0.7257026442941417  0.38196120123270416  1.0000
  C   C109      1.0  0.9244689704043744  0.7742973555128517  0.8819612011602498  1.0000
  C   C110      1.0  0.5755310297710777  0.2257026443584772  0.38196120123270416  1.0000
  C   C111      1.0  0.4244689703458904  0.7257026442941417  0.1180387986948415  1.0000
  C   C112      1.0  0.07553102971259366  0.27429735557718726  0.6180387986223871  1.0000
  N   N1        1.0  0.6377746436521562  0.11183519913629417  0.17120943757929558  1.0000
  N   N2        1.0  0.8622253565232959  0.8881648013555821  0.6712094379239395  1.0000
  N   N3        1.0  0.13777464359367209  0.38816480141991766  0.8287905622757957  1.0000
  N   N4        1.0  0.36222535646481197  0.6118351990719586  0.32879056234825  1.0000
  N   N5        1.0  0.36222535646481197  0.8881648013555821  0.8287905622757957  1.0000
  N   N6        1.0  0.13777464359367209  0.11183519913629417  0.32879056234825  1.0000
  N   N7        1.0  0.8622253565232959  0.6118351990719586  0.17120943757929558  1.0000
  N   N8        1.0  0.6377746436521562  0.38816480141991766  0.6712094379239395  1.0000
  N   N9        1.0  0.23280658342770022  0.24614430181726227  0.10013455581773838  1.0000
  N   N10       1.0  0.26719341663078383  0.7538556980540667  0.600134555745284  1.0000
  N   N11       1.0  0.7328065834861843  0.2538556981184022  0.8998654444544512  1.0000
  N   N12       1.0  0.7671934166892678  0.7461443017529268  0.3998654445269056  1.0000
  N   N13       1.0  0.7671934166892678  0.7538556980540667  0.8998654444544512  1.0000
  N   N14       1.0  0.7328065834861843  0.24614430181726227  0.3998654445269056  1.0000
  N   N15       1.0  0.26719341663078383  0.7461443017529268  0.10013455581773838  1.0000
  N   N16       1.0  0.23280658342770022  0.2538556981184022  0.600134555745284  1.0000
  O   O1        1.0  0.5797633203628375  0.14408163775340463  0.26324309411973074  1.0000
  O   O2        1.0  0.9202366798126146  0.8559183621179243  0.7632430944643747  1.0000
  O   O3        1.0  0.07976332030435346  0.3559183621822598  0.7367569057353606  1.0000
  O   O4        1.0  0.4202366797541306  0.6440816376890691  0.23675690580781492  1.0000
  O   O5        1.0  0.4202366797541306  0.8559183621179243  0.7367569057353606  1.0000
  O   O6        1.0  0.07976332030435346  0.14408163775340463  0.23675690580781492  1.0000
  O   O7        1.0  0.9202366798126146  0.6440816376890691  0.26324309411973074  1.0000
  O   O8        1.0  0.5797633203628375  0.3559183621822598  0.7632430944643747  1.0000
  O   O9        1.0  0.5659037979918075  0.9917322698241743  0.10464213853344072  1.0000
  O   O10       1.0  0.9340962009047713  0.008267730667702004  0.6046421384609864  1.0000
  O   O11       1.0  0.06590379921219675  0.5082677306033665  0.8953578613216504  1.0000
  O   O12       1.0  0.4340962008462873  0.4917322698885098  0.39535786139410495  1.0000
  O   O13       1.0  0.4340962008462873  0.008267730667702004  0.8953578613216504  1.0000
  O   O14       1.0  0.06590379921219675  0.9917322698241743  0.39535786139410495  1.0000
  O   O15       1.0  0.9340962009047713  0.4917322698885098  0.10464213853344072  1.0000
  O   O16       1.0  0.5659037979918075  0.5082677306033665  0.6046421384609864  1.0000
  O   O17       1.0  0.8472363511361892  0.05974951368950817  0.09756968398782512  1.0000
  O   O18       1.0  0.6527636490392629  0.9402504861818207  0.5975696839153708  1.0000
  O   O19       1.0  0.34723635107770523  0.44025048624615626  0.9024303162843644  1.0000
  O   O20       1.0  0.15276364898077882  0.5597495142457201  0.4024303159397205  1.0000
  O   O21       1.0  0.15276364898077882  0.9402504861818207  0.9024303162843644  1.0000
  O   O22       1.0  0.34723635107770523  0.05974951368950817  0.4024303159397205  1.0000
  O   O23       1.0  0.6527636490392629  0.5597495142457201  0.09756968398782512  1.0000
  O   O24       1.0  0.8472363511361892  0.44025048624615626  0.5975696839153708  1.0000
  O   O25       1.0  0.8391354828050646  0.4134477336280763  0.9868529267358767  1.0000
  O   O26       1.0  0.6608645173703875  0.5865522662432526  0.486852926808331  1.0000
  O   O27       1.0  0.3391354827465805  0.08655226630758817  0.01314707311921467  1.0000
  O   O28       1.0  0.16086451731190354  0.9134477335637408  0.5131470730467603  1.0000
  O   O29       1.0  0.16086451731190354  0.5865522662432526  0.01314707311921467  1.0000
  O   O30       1.0  0.3391354827465805  0.4134477336280763  0.5131470730467603  1.0000
  O   O31       1.0  0.6608645173703875  0.9134477335637408  0.9868529267358767  1.0000
  O   O32       1.0  0.8391354828050646  0.08655226630758817  0.486852926808331  1.0000
  O   O33       1.0  0.653541404803743  0.3522077303204957  0.04706719464647036  1.0000
  O   O34       1.0  0.8464585953717091  0.6477922695508332  0.547067194574016  1.0000
  O   O35       1.0  0.1535414047452589  0.1477922696151688  0.9529328052086209  1.0000
  O   O36       1.0  0.34645859531322515  0.85220773025616  0.4529328052810752  1.0000
  O   O37       1.0  0.34645859531322515  0.6477922695508332  0.9529328052086209  1.0000
  O   O38       1.0  0.1535414047452589  0.3522077303204957  0.4529328052810752  1.0000
  O   O39       1.0  0.8464585953717091  0.85220773025616  0.04706719464647036  1.0000
  O   O40       1.0  0.653541404803743  0.1477922696151688  0.547067194574016  1.0000
  S   S1        1.0  0.7071903888729214  0.03244153498601266  0.13260774953429566  1.0000
  S   S2        1.0  0.7928096113025307  0.9675584648853163  0.6326077494618413  1.0000
  S   S3        1.0  0.2071903888144373  0.4675584649496518  0.8673922507378938  1.0000
  S   S4        1.0  0.29280961124404675  0.5324415349216771  0.3673922508103483  1.0000
  S   S5        1.0  0.29280961124404675  0.9675584648853163  0.8673922507378938  1.0000
  S   S6        1.0  0.2071903888144373  0.03244153498601266  0.3673922508103483  1.0000
  S   S7        1.0  0.7928096113025307  0.5324415349216771  0.13260774953429566  1.0000
  S   S8        1.0  0.7071903888729214  0.4675584649496518  0.6326077494618413  1.0000
  Br  Br1       1.0  0.4443968617408352  0.1821102703376995  0.1368833980596966  1.0000
  Br  Br2       1.0  0.0556031383176488  0.8178897295336294  0.6368833984043405  1.0000
  Br  Br3       1.0  0.9443968617993193  0.31788972959796497  0.8631166017953947  1.0000
  Br  Br4       1.0  0.5556031383761328  0.6821102702733639  0.363116601867849  1.0000
  Br  Br5       1.0  0.5556031383761328  0.8178897295336294  0.8631166017953947  1.0000
  Br  Br6       1.0  0.9443968617993193  0.1821102703376995  0.363116601867849  1.0000
  Br  Br7       1.0  0.0556031383176488  0.6821102702733639  0.1368833980596966  1.0000
  Br  Br8       1.0  0.4443968617408352  0.31788972959796497  0.6368833984043405  1.0000
