data_image0
_chemical_formula_structural       H32C52N12O12S4Br4
_chemical_formula_sum              "H32 C52 N12 O12 S4 Br4"
_cell_length_a       7.040971800292717
_cell_length_b       13.61888887549806
_cell_length_c       14.722429415302296
_cell_angle_alpha    90.0
_cell_angle_beta     102.0320477216116
_cell_angle_gamma    90.0

_space_group_name_H-M_alt    "P 1"
_space_group_IT_number       1

loop_
  _space_group_symop_operation_xyz
  'x, y, z'

loop_
  _atom_site_type_symbol
  _atom_site_label
  _atom_site_symmetry_multiplicity
  _atom_site_fract_x
  _atom_site_fract_y
  _atom_site_fract_z
  _atom_site_occupancy
  H   H1        1.0  0.9391542112752866  0.7935008684476683  0.17830634314782254  1.0000
  H   H2        1.0  0.06084578904127302  0.29350086901665967  0.32169365668596644  1.0000
  H   H3        1.0  0.06084578981960307  0.20649913114862326  0.821693656826325  1.0000
  H   H4        1.0  0.9391542106328806  0.7064991313139062  0.6783063432870808  1.0000
  H   H5        1.0  0.927772546666811  0.7951315235035263  0.004301176017597707  1.0000
  H   H6        1.0  0.07222745364974868  0.2951315233382435  0.49569882381619124  1.0000
  H   H7        1.0  0.07222745300734247  0.2048684768270395  0.9956988239554495  1.0000
  H   H8        1.0  0.9277725460244048  0.7048684769923225  0.504301176156856  1.0000
  H   H9        1.0  0.8348874887507036  0.6483766554470156  0.9110830126227117  1.0000
  H   H10       1.0  0.16511251028104362  0.1483766552817327  0.5889169874895936  1.0000
  H   H11       1.0  0.1651125109234499  0.35162334488355024  0.08891698735033543  1.0000
  H   H12       1.0  0.8348874893931099  0.8516233450488332  0.4110830124834535  1.0000
  H   H13       1.0  0.7441869509054342  0.4925229092710909  0.9836656331231385  1.0000
  H   H14       1.0  0.2558130495470493  0.9925229087020996  0.5163343669902672  1.0000
  H   H15       1.0  0.25581304876871924  0.507477091059475  0.01633436684990865  1.0000
  H   H16       1.0  0.7441869501271042  0.007477090894192053  0.4836656329827799  1.0000
  H   H17       1.0  0.6175796170381825  0.2907235102801441  0.49711441760950764  1.0000
  H   H18       1.0  0.3824203835788422  0.790723510445427  0.0028855829187733398  1.0000
  H   H19       1.0  0.382420382635971  0.7092764893161475  0.5028855823635395  1.0000
  H   H20       1.0  0.6175796163957762  0.2092764898851389  0.997114417748766  1.0000
  H   H21       1.0  0.560452770973105  0.2342328129087798  0.6516510080166339  1.0000
  H   H22       1.0  0.43954722947937874  0.7342328130740629  0.8483489920967721  1.0000
  H   H23       1.0  0.439547230121785  0.7657671874217861  0.3483489919575138  1.0000
  H   H24       1.0  0.5604527701947748  0.2657671872565031  0.1516510078762752  1.0000
  H   H25       1.0  0.7668274382315589  0.5188298336667052  0.7629916321708411  1.0000
  H   H26       1.0  0.2331725608001884  0.01882983423569653  0.7370083679414644  1.0000
  H   H27       1.0  0.2331725614425946  0.48117016592958645  0.23700836780220616  1.0000
  H   H28       1.0  0.7668274388739651  0.9811701660948694  0.2629916320315828  1.0000
  H   H29       1.0  0.8113995570451885  0.5638443576564665  0.6033522112595269  1.0000
  H   H30       1.0  0.18860044198655876  0.06384435822545778  0.8966477888527786  1.0000
  H   H31       1.0  0.18860044262896494  0.43615564193982514  0.3966477887135203  1.0000
  H   H32       1.0  0.8113995576875948  0.9361556421051082  0.10335221112026864  1.0000
  C   C1        1.0  0.8332343767298668  0.6289015277457258  0.27366747557985244  1.0000
  C   C2        1.0  0.16676562216595667  0.1289015275804429  0.22633252425283618  1.0000
  C   C3        1.0  0.1667656229442868  0.3710984725848401  0.7263325243931948  1.0000
  C   C4        1.0  0.8332343775081968  0.871098472750123  0.773667475720211  1.0000
  C   C5        1.0  0.8432865432703016  0.6437859857843473  0.1744208549493499  1.0000
  C   C6        1.0  0.15671345704625814  0.14378598635333867  0.32557914488443906  1.0000
  C   C7        1.0  0.15671345640385184  0.3562140138119443  0.8255791450236972  1.0000
  C   C8        1.0  0.8432865440486318  0.8562140139772272  0.6744208550897085  1.0000
  C   C9        1.0  0.8939712691484134  0.7297728956347423  0.13426123479817179  1.0000
  C   C10       1.0  0.10602873116814635  0.22977289546945945  0.36573876503561714  1.0000
  C   C11       1.0  0.10602873194647644  0.2702271046958235  0.8657387651759758  1.0000
  C   C12       1.0  0.8939712685060073  0.7702271041268322  0.63426123493743  1.0000
  C   C13       1.0  0.8897175672120066  0.7295105967032616  0.03889163286842068  1.0000
  C   C14       1.0  0.11028243340501807  0.2295105965379786  0.46110836765986035  1.0000
  C   C15       1.0  0.11028243246214682  0.27048940362730434  0.9611083671046265  1.0000
  C   C16       1.0  0.8897175662691356  0.7704894037925872  0.5388916323131869  1.0000
  C   C17       1.0  0.8362769841838831  0.6452622075366351  0.9850611821732194  1.0000
  C   C18       1.0  0.16372301484786417  0.14526220737135215  0.5149388179390861  1.0000
  C   C19       1.0  0.16372301549027043  0.35473779279393075  0.014938817799827933  1.0000
  C   C20       1.0  0.8362769851267543  0.8547377922249394  0.4850611827284531  1.0000
  C   C21       1.0  0.7867220469691972  0.5581885834810433  0.025094940732804376  1.0000
  C   C22       1.0  0.21327795222709106  0.0581885833157603  0.47490505979437625  1.0000
  C   C23       1.0  0.21327795270495617  0.44181141684952263  0.9749050592402427  1.0000
  C   C24       1.0  0.7867220474470623  0.9418114162805313  0.5250949401786709  1.0000
  C   C25       1.0  0.7924356484197952  0.5600598785795626  0.11987987955581768  1.0000
  C   C26       1.0  0.20756435189676453  0.060059878414279705  0.3801201202779713  1.0000
  C   C27       1.0  0.2075643512543583  0.4399401217510032  0.8801201204172295  1.0000
  C   C28       1.0  0.792435647777389  0.9399401219162862  0.6198798796950759  1.0000
  C   C29       1.0  0.6468361647876515  0.3384135983583646  0.5580025871429564  1.0000
  C   C30       1.0  0.35316383566483206  0.8384135985236475  0.9419974129704495  1.0000
  C   C31       1.0  0.353163834886502  0.661586401237927  0.44199741283009086  1.0000
  C   C32       1.0  0.6468361640093214  0.16158640107264408  0.05800258700259775  1.0000
  C   C33       1.0  0.6164403883898449  0.3074798515709936  0.6437702095956622  1.0000
  C   C34       1.0  0.3835596120626387  0.8074798510020023  0.8562297905177436  1.0000
  C   C35       1.0  0.3835596112843086  0.6925201487595722  0.35622979037738495  1.0000
  C   C36       1.0  0.6164403876115149  0.19252014859428931  0.1437702094553036  1.0000
  C   C37       1.0  0.6626315415383447  0.3722356424480778  0.7191758364971574  1.0000
  C   C38       1.0  0.33736845891413897  0.8722356426133607  0.7808241636162484  1.0000
  C   C39       1.0  0.3373684581358089  0.6277643571482138  0.28082416347588984  1.0000
  C   C40       1.0  0.6626315407600146  0.12776435771720515  0.2191758363567988  1.0000
  C   C41       1.0  0.7329146967090515  0.46651326610282284  0.7062127188326505  1.0000
  C   C42       1.0  0.26708530374343203  0.9665132662681057  0.7937872812807553  1.0000
  C   C43       1.0  0.267085302965102  0.5334867342277431  0.2937872811403967  1.0000
  C   C44       1.0  0.7329146959307214  0.03348673406246012  0.20621271869229188  1.0000
  C   C45       1.0  0.7575536046907401  0.49193664044453744  0.6182374756919753  1.0000
  C   C46       1.0  0.24244639546127855  0.9919366406098203  0.8817625237269385  1.0000
  C   C47       1.0  0.24244639640414978  0.5080633598860285  0.38176252428217233  1.0000
  C   C48       1.0  0.7575536042128749  0.008063359720745497  0.11823747624610868  1.0000
  C   C49       1.0  0.6391961464921656  0.3425601047669452  0.8091102146919404  1.0000
  C   C50       1.0  0.3608038525395816  0.8425601049322282  0.6908897854203649  1.0000
  C   C51       1.0  0.3608038531819879  0.6574398948293464  0.1908897852811067  1.0000
  C   C52       1.0  0.6391961471345718  0.15743989466406344  0.3091102145526822  1.0000
  N   N1        1.0  0.7754394915686454  0.5334409669110627  0.2861314130572698  1.0000
  N   N2        1.0  0.22456050874791428  0.033440966745779725  0.21386858677651918  1.0000
  N   N3        1.0  0.22456050952624435  0.46655903268522897  0.7138685869168777  1.0000
  N   N4        1.0  0.7754394909262392  0.9665590328505119  0.7861314131965281  1.0000
  N   N5        1.0  0.7167622031484743  0.42839276267952037  0.5471394697296353  1.0000
  N   N6        1.0  0.28323779730400944  0.928392762110529  0.9528605303837705  1.0000
  N   N7        1.0  0.2832377979464157  0.5716072376510455  0.4528605302445122  1.0000
  N   N8        1.0  0.716762202370144  0.0716072374857626  0.047139469589276735  1.0000
  N   N9        1.0  0.6206194487832382  0.31885871525192166  0.882875779650496  1.0000
  N   N10       1.0  0.37938055136878046  0.8188587154172047  0.6171242197684177  1.0000
  N   N11       1.0  0.3793805508909153  0.6811412843443699  0.11712422032255118  1.0000
  N   N12       1.0  0.6206194497261094  0.18114128417908695  0.3828757802057298  1.0000
  O   O1        1.0  0.868343267452473  0.6909265885067204  0.33565679032434564  1.0000
  O   O2        1.0  0.13165673316455173  0.19092658834143744  0.16434321020393536  1.0000
  O   O3        1.0  0.13165673222168045  0.30907341182384546  0.6643432096487014  1.0000
  O   O4        1.0  0.8683432665096018  0.8090734112548541  0.8356567897691118  1.0000
  O   O5        1.0  0.8906903584387592  0.3879953003733394  0.20124506823547778  1.0000
  O   O6        1.0  0.10930964045706419  0.8879953005386224  0.29875493159721084  1.0000
  O   O7        1.0  0.1093096412353943  0.6120046992229522  0.7987549317375695  1.0000
  O   O8        1.0  0.8906903592170894  0.11200469905766927  0.7012450683758364  1.0000
  O   O9        1.0  0.5420039789445336  0.43053564527932664  0.16682760573701752  1.0000
  O   O10       1.0  0.45799601995128975  0.9305356454446095  0.333172394095671  1.0000
  O   O11       1.0  0.45799602072961987  0.569464354316965  0.8331723942360297  1.0000
  O   O12       1.0  0.5420039797228637  0.06946435415168203  0.6668276058773761  1.0000
  S   S1        1.0  0.7421883302732146  0.46330941442307966  0.19125222933724118  1.0000
  S   S2        1.0  0.25781166862260874  0.9633094145883626  0.3087477704954474  1.0000
  S   S3        1.0  0.25781166940093886  0.536690585173212  0.808747770635806  1.0000
  S   S4        1.0  0.7421883310515448  0.03669058500792899  0.6912522294775998  1.0000
  Br  Br1       1.0  0.7508064311508494  0.47863077007166  0.411888679193322  1.0000
  Br  Br2       1.0  0.2491935691657103  0.978630770236943  0.08811132064046702  1.0000
  Br  Br3       1.0  0.2491935685233041  0.5213692302589059  0.5881113207797253  1.0000
  Br  Br4       1.0  0.7508064319291795  0.021369230093622953  0.9118886793336806  1.0000
