data_image0
_chemical_formula_structural       H24C24N4O8
_chemical_formula_sum              "H24 C24 N4 O8"
_cell_length_a       3.6084849465417976
_cell_length_b       7.891629803972492
_cell_length_c       20.54118667703794
_cell_angle_alpha    90.0
_cell_angle_beta     95.5957445962957
_cell_angle_gamma    90.0

_space_group_name_H-M_alt    "P 1"
_space_group_IT_number       1

loop_
  _space_group_symop_operation_xyz
  'x, y, z'

loop_
  _atom_site_type_symbol
  _atom_site_label
  _atom_site_symmetry_multiplicity
  _atom_site_fract_x
  _atom_site_fract_y
  _atom_site_fract_z
  _atom_site_occupancy
  H   H1        1.0  0.20829592546542366  0.3511638874146129  0.4243162728405221  1.0000
  H   H2        1.0  0.7917040738734751  0.8511638871629227  0.5756837273022892  1.0000
  H   H3        1.0  0.9774125454845745  0.012768335882820796  0.4713635543395273  1.0000
  H   H4        1.0  0.02258745663189185  0.5127683356311307  0.5286364453628237  1.0000
  H   H5        1.0  0.6793041191522319  0.16432991944797015  0.0751815854267419  1.0000
  H   H6        1.0  0.32069588018666695  0.66432991919628  0.9248184147160694  1.0000
  H   H7        1.0  0.9715641553892176  0.4801503560256472  0.0204454169366039  1.0000
  H   H8        1.0  0.02843584673418782  0.980150355773957  0.9795545832526914  1.0000
  H   H9        1.0  0.04025666450331564  0.3094303674471388  0.30634683124274037  1.0000
  H   H10       1.0  0.9597433376200899  0.809430368462614  0.6936531689465549  1.0000
  H   H11       1.0  0.1285847332811115  0.5078251045155044  0.21286132222394  1.0000
  H   H12       1.0  0.8714152660577873  0.007825104767194583  0.7871386779188714  1.0000
  H   H13       1.0  0.5959440302991162  0.8688466590955033  0.35727653146259675  1.0000
  H   H14       1.0  0.4040559690397824  0.3688466593471934  0.6427234686802145  1.0000
  H   H15       1.0  0.48155237998063855  0.6581224447940544  0.4429375805037287  1.0000
  H   H16       1.0  0.5184476193513211  0.15812244377857915  0.5570624191521384  1.0000
  H   H17       1.0  0.5496390908711105  0.24529418612940648  0.190198047313202  1.0000
  H   H18       1.0  0.4503609112522949  0.7452941858777163  0.8098019528760932  1.0000
  H   H19       1.0  0.4071632729358398  0.05433002695896536  0.2828250952354536  1.0000
  H   H20       1.0  0.592836726403059  0.5543300267072753  0.7171749049073577  1.0000
  H   H21       1.0  0.49311843385596066  0.6315059352494397  0.15069009439692538  1.0000
  H   H22       1.0  0.5068815654759989  0.1315059355011298  0.8493099052589418  1.0000
  H   H23       1.0  0.6230260364495777  0.8382978312882681  0.06528152853753909  1.0000
  H   H24       1.0  0.3769739628823819  0.3382978315399583  0.9347184711183281  1.0000
  C   C1        1.0  0.014026604819302405  0.11456068169149403  0.43529794715858716  1.0000
  C   C2        1.0  0.9859733945195964  0.6145606814398038  0.5647020529842242  1.0000
  C   C3        1.0  0.8976595568648358  0.39073202451131456  0.05875868587616433  1.0000
  C   C4        1.0  0.10234044247406303  0.8907320255267898  0.9412413142666468  1.0000
  C   C5        1.0  0.16161977335833805  0.4353869106062767  0.3139428794472763  1.0000
  C   C6        1.0  0.8383802259805607  0.9353869103545865  0.6860571206955349  1.0000
  C   C7        1.0  0.21251030214833072  0.5458925097869449  0.2630584871766347  1.0000
  C   C8        1.0  0.7874896971836289  0.04589251003863516  0.7369415124792326  1.0000
  C   C9        1.0  0.3685982810008418  0.706194329743477  0.2774522317662327  1.0000
  C   C10       1.0  0.6314017183380569  0.20619432999516712  0.7225477683765786  1.0000
  C   C11       1.0  0.46438773067096445  0.74801803387033  0.34332999762613414  1.0000
  C   C12       1.0  0.5356122686679344  0.2480180341220201  0.6566700025166771  1.0000
  C   C13       1.0  0.4053742651698647  0.6298514557155127  0.3913470803749452  1.0000
  C   C14       1.0  0.5946257341620949  0.1298514559672029  0.608652919280922  1.0000
  C   C15       1.0  0.532453983103658  0.10799675240353822  0.18473447227315593  1.0000
  C   C16       1.0  0.4675460162352408  0.6079967521518481  0.8152655278696554  1.0000
  C   C17       1.0  0.4548119246546627  0.00143203498906034  0.23543915394471454  1.0000
  C   C18       1.0  0.5451880746772969  0.5014320347373702  0.7645608457111527  1.0000
  C   C19       1.0  0.43881944609338985  0.8257080009911111  0.22472393285792963  1.0000
  C   C20       1.0  0.5611805560230766  0.32570800124280125  0.7752760668444214  1.0000
  C   C21       1.0  0.49962550227648606  0.7659732894410706  0.16230797687070256  1.0000
  C   C22       1.0  0.5003744970624127  0.26597328969276074  0.8376920232721088  1.0000
  C   C23       1.0  0.5763297834427527  0.8810287459885816  0.11430360852265396  1.0000
  C   C24       1.0  0.42367021868065285  0.3810287462402718  0.8856963916666413  1.0000
  N   N1        1.0  0.25768472429731304  0.476461145973581  0.37684922264043436  1.0000
  N   N2        1.0  0.7423152750415858  0.9764611457218908  0.6231507775023769  1.0000
  N   N3        1.0  0.5924378643461691  0.04875316373891848  0.12532634206162943  1.0000
  N   N4        1.0  0.4075621349857904  0.5487531634872282  0.8746736575942378  1.0000
  O   O1        1.0  0.16993898973559884  0.25105026328055896  0.4623893075814694  1.0000
  O   O2        1.0  0.8300610096033  0.7510502642960342  0.537610692561342  1.0000
  O   O3        1.0  0.9163838874322746  0.09438939591730962  0.37649527571989394  1.0000
  O   O4        1.0  0.08361611189968497  0.5943893969327848  0.6235047239359732  1.0000
  O   O5        1.0  0.7464032756358279  0.24975109058053713  0.034623297709121356  1.0000
  O   O6        1.0  0.25359672369613173  0.7497510915960124  0.9653767019467457  1.0000
  O   O7        1.0  0.9539077030495628  0.42603511359688706  0.11738621787589279  1.0000
  O   O8        1.0  0.0460922962823968  0.926035113345197  0.8826137817799744  1.0000
