data_image0
_chemical_formula_structural       H36C44N4O6
_chemical_formula_sum              "H36 C44 N4 O6"
_cell_length_a       6.5018505747087705
_cell_length_b       12.287896012673473
_cell_length_c       13.229863266582134
_cell_angle_alpha    118.52336368184507
_cell_angle_beta     95.13251415483899
_cell_angle_gamma    103.95508360390964

_space_group_name_H-M_alt    "P 1"
_space_group_IT_number       1

loop_
  _space_group_symop_operation_xyz
  'x, y, z'

loop_
  _atom_site_type_symbol
  _atom_site_label
  _atom_site_symmetry_multiplicity
  _atom_site_fract_x
  _atom_site_fract_y
  _atom_site_fract_z
  _atom_site_occupancy
  H   H1        1.0  0.2632691062611865  0.036004530743462625  0.24244590378739134  1.0000
  H   H2        1.0  0.7367308938059999  0.963995468988863  0.7575540960093405  1.0000
  H   H3        1.0  0.8613966773327523  0.9353897649870251  0.2918181154840771  1.0000
  H   H4        1.0  0.13860332273443404  0.06461023474530048  0.7081818843126548  1.0000
  H   H5        1.0  0.7814991870371308  0.8192800371336576  0.4034204952417531  1.0000
  H   H6        1.0  0.21850081303005547  0.18071996259866788  0.5965795045549788  1.0000
  H   H7        1.0  0.14009537197334193  0.8606259649464189  0.39249069685861615  1.0000
  H   H8        1.0  0.8599046265424585  0.13937403477233112  0.6075093028597627  1.0000
  H   H9        1.0  0.42143589066680315  0.782110588407674  0.45203974981961237  1.0000
  H   H10       1.0  0.5785641094003832  0.21788941132465153  0.5479602499771195  1.0000
  H   H11       1.0  0.8207165884023275  0.10064491744007101  0.14574777777066658  1.0000
  H   H12       1.0  0.17928341061612885  0.8993550832633938  0.8542522231579813  1.0000
  H   H13       1.0  0.6624738696931435  0.3346708528997035  0.8228429532924951  1.0000
  H   H14       1.0  0.337526130882201  0.6653291478116979  0.1771570469564052  1.0000
  H   H15       1.0  0.05563267776337324  0.3497317275600684  0.9203328240707905  1.0000
  H   H16       1.0  0.9443673212605852  0.6502682731377575  0.07966717609975671  1.0000
  H   H17       1.0  0.3549279426554835  0.4820585700107048  0.24532521434787483  1.0000
  H   H18       1.0  0.6450720558603168  0.5179414297080452  0.7546747853705039  1.0000
  H   H19       1.0  0.2725946466522365  0.21744181319168723  0.9441857812376909  1.0000
  H   H20       1.0  0.7274053539231079  0.7825581875197141  0.05581421901120944  1.0000
  H   H21       1.0  0.639825890352928  0.25016606316785983  0.12113136792168896  1.0000
  H   H22       1.0  0.36017411022241635  0.7498339375435416  0.8788686323272116  1.0000
  H   H23       1.0  0.030265078591729402  0.5587016287509085  0.2317908443248821  1.0000
  H   H24       1.0  0.969734921983615  0.441298371960493  0.7682091559240185  1.0000
  H   H25       1.0  0.16646495653031113  0.11370195102396778  0.06505885345642262  1.0000
  H   H26       1.0  0.8335350419854893  0.8862980486947823  0.9349411462619562  1.0000
  H   H27       1.0  0.46604977851327073  0.574298958425678  0.4628424243188274  1.0000
  H   H28       1.0  0.5339502215484133  0.4257010413122863  0.5371575762360052  1.0000
  H   H29       1.0  0.13855515715886096  0.6421583135271087  0.4471768930444333  1.0000
  H   H30       1.0  0.8614448429083253  0.35784168620521695  0.5528231067522986  1.0000
  H   H31       1.0  0.9660677546731766  0.7819785913954646  0.6454143187430474  1.0000
  H   H32       1.0  0.03393224539400981  0.2180214083368611  0.35458568105368454  1.0000
  H   H33       1.0  0.9910976913306151  0.6331512653303712  0.6258577751369194  1.0000
  H   H34       1.0  0.008902308736571215  0.3668487344019545  0.37414222465981256  1.0000
  H   H35       1.0  0.7393422877079507  0.6651672778702017  0.6412706921221727  1.0000
  H   H36       1.0  0.26065771235923557  0.33483272186212387  0.3587293076745592  1.0000
  C   C1        1.0  0.5476533545526479  0.9626181508049108  0.27984477399573  1.0000
  C   C2        1.0  0.45234664551453846  0.03738184892741465  0.7201552258010019  1.0000
  C   C3        1.0  0.7040962137946275  0.917246989496639  0.3138622755107603  1.0000
  C   C4        1.0  0.29590378627255876  0.08275301023568653  0.6861377242859716  1.0000
  C   C5        1.0  0.5931146532806704  0.03198680066360252  0.21494269108720826  1.0000
  C   C6        1.0  0.40688534678651594  0.968013199068723  0.7850573087095237  1.0000
  C   C7        1.0  0.3439041354246252  0.943353629083552  0.3102030908626066  1.0000
  C   C8        1.0  0.656095865150719  0.0566463716278493  0.6897969093862939  1.0000
  C   C9        1.0  0.6595589838811365  0.8531138444860913  0.3757843905203445  1.0000
  C   C10       1.0  0.34044101514282193  0.14688615621173462  0.6242156096502027  1.0000
  C   C11       1.0  0.2971704931306211  0.8747007366962405  0.3696284671765399  1.0000
  C   C12       1.0  0.7028295069365652  0.12529926303608507  0.6303715326201922  1.0000
  C   C13       1.0  0.45515373455344393  0.8316747587205424  0.4026911730932097  1.0000
  C   C14       1.0  0.5448462655137425  0.16832524101178323  0.5973088267035224  1.0000
  C   C15       1.0  0.6859821099366925  0.5157211522692489  0.22558766337985445  1.0000
  C   C16       1.0  0.3140178901304937  0.4842788474630767  0.7744123364168776  1.0000
  C   C17       1.0  0.8350593404727403  0.3162764987015311  0.02278453950794008  1.0000
  C   C18       1.0  0.16494066010260414  0.6837235020098704  0.9772154607409602  1.0000
  C   C19       1.0  0.4968274008122213  0.5237304635365689  0.05958971862723836  1.0000
  C   C20       1.0  0.503172599763123  0.4762695371748325  0.9404102816216621  1.0000
  C   C21       1.0  0.6342413761128458  0.3942984035961283  0.9089671163165499  1.0000
  C   C22       1.0  0.3657586239543405  0.6057015961361973  0.09103288348018207  1.0000
  C   C23       1.0  0.7075126677477789  0.3936563094177389  0.011258361619310056  1.0000
  C   C24       1.0  0.29248733282756556  0.6063436912936626  0.9887416386295904  1.0000
  C   C25       1.0  0.012624730923329365  0.30176541999108686  0.9701428807712538  1.0000
  C   C26       1.0  0.9873752691438569  0.6982345797412386  0.029857119025478152  1.0000
  C   C27       1.0  0.5269370200101176  0.5189179789234529  0.2903994264978322  1.0000
  C   C28       1.0  0.4730629805652268  0.48108202178794846  0.7096005737510682  1.0000
  C   C29       1.0  0.13422662238745503  0.2289280384126862  0.9840381961605306  1.0000
  C   C30       1.0  0.8657733776797314  0.7710719613196394  0.015961803636201376  1.0000
  C   C31       1.0  0.7821374870073396  0.2494646060131609  0.0832379162224599  1.0000
  C   C32       1.0  0.2178625135625025  0.7505353947038793  0.9167620847845411  1.0000
  C   C33       1.0  0.9066650354182729  0.5597280344197507  0.2823814459931517  1.0000
  C   C34       1.0  0.09333496464891335  0.44027196531257484  0.7176185538035804  1.0000
  C   C35       1.0  0.07510042748777188  0.17014161627352592  0.0493831899321237  1.0000
  C   C36       1.0  0.9248995725794146  0.8298583834587997  0.9506168098646083  1.0000
  C   C37       1.0  0.590124194943535  0.5698162097678436  0.41202948243407445  1.0000
  C   C38       1.0  0.40987580512365135  0.43018378996448187  0.5879705173626575  1.0000
  C   C39       1.0  0.8100364613102974  0.6157559864672976  0.4709426311646255  1.0000
  C   C40       1.0  0.18996353875688884  0.3842440132650279  0.5290573686321065  1.0000
  C   C41       1.0  0.9663028030339229  0.6074084045085766  0.4032701309114361  1.0000
  C   C42       1.0  0.033697197033263536  0.3925915952237489  0.5967298688852959  1.0000
  C   C43       1.0  0.8794936596882658  0.6765467643219006  0.6026095732039395  1.0000
  C   C44       1.0  0.12050634088707865  0.3234532363895007  0.39739042704496097  1.0000
  N   N1        1.0  0.6232401499963004  0.47286339579616676  0.1036470276137149  1.0000
  N   N2        1.0  0.37675985007088586  0.5271366039361588  0.8963529721830171  1.0000
  N   N3        1.0  0.8992391423355108  0.1788786726554404  0.09537779570000067  1.0000
  N   N4        1.0  0.10076085773167563  0.8211213270768851  0.9046222040967312  1.0000
  O   O1        1.0  0.7795994078395231  0.03808420574636258  0.18393447241289393  1.0000
  O   O2        1.0  0.22040059222766326  0.9619157939859629  0.816065527383838  1.0000
  O   O3        1.0  0.46054775968930717  0.08174863647446319  0.19183277132674692  1.0000
  O   O4        1.0  0.5394522388264933  0.9182513632442869  0.8081672283916318  1.0000
  O   O5        1.0  0.1942032427271291  0.9907938430377299  0.284133150535359  1.0000
  O   O6        1.0  0.8057967573400571  0.009206156694595733  0.715866849261373  1.0000
