data_image0
_chemical_formula_structural       H40C34N8O8S2
_chemical_formula_sum              "H40 C34 N8 O8 S2"
_cell_length_a       9.095141952113227
_cell_length_b       6.492601237222022
_cell_length_c       15.046606957928264
_cell_angle_alpha    90.0
_cell_angle_beta     105.5777750151361
_cell_angle_gamma    90.0

_space_group_name_H-M_alt    "P 1"
_space_group_IT_number       1

loop_
  _space_group_symop_operation_xyz
  'x, y, z'

loop_
  _atom_site_type_symbol
  _atom_site_label
  _atom_site_symmetry_multiplicity
  _atom_site_fract_x
  _atom_site_fract_y
  _atom_site_fract_z
  _atom_site_occupancy
  H   H1        1.0  0.4303655464245073  0.25000000010696705  0.9954389608700496  1.0000
  H   H2        1.0  0.5696344537040972  0.7500000003209012  0.004561038996519865  1.0000
  H   H3        1.0  0.5224955771871266  0.11262155849153306  0.9216737991213432  1.0000
  H   H4        1.0  0.4775044229414778  0.6126215587054672  0.07832620074522624  1.0000
  H   H5        1.0  0.4775044229414778  0.8873784419363351  0.07832620074522624  1.0000
  H   H6        1.0  0.5224955771871266  0.38737844172240105  0.9216737991213432  1.0000
  H   H7        1.0  0.3041996695520055  0.25000000010696705  0.5972262862783625  1.0000
  H   H8        1.0  0.695800330576599  0.7500000003209012  0.40277371358820685  1.0000
  H   H9        1.0  0.12740376388421915  0.11183589342238391  0.566033385899163  1.0000
  H   H10       1.0  0.8725962362443853  0.6118358920961033  0.4339666139674063  1.0000
  H   H11       1.0  0.8725962362443853  0.8881641070054843  0.4339666139674063  1.0000
  H   H12       1.0  0.12740376388421915  0.38816410679155017  0.566033385899163  1.0000
  H   H13       1.0  0.6979131946756826  0.25000000010696705  0.8558791418946229  1.0000
  H   H14       1.0  0.3020868054529219  0.7500000003209012  0.14412085797194646  1.0000
  H   H15       1.0  0.8571665241358414  0.11180049158703288  0.9273087923486624  1.0000
  H   H16       1.0  0.14283347599276308  0.611800491800967  0.07269120751790702  1.0000
  H   H17       1.0  0.14283347599276308  0.8881995073006206  0.07269120751790702  1.0000
  H   H18       1.0  0.8571665241358414  0.3881995070866865  0.9273087923486624  1.0000
  H   H19       1.0  0.6877226999926593  0.25000000010696705  0.694404192347156  1.0000
  H   H20       1.0  0.31227730013594507  0.7500000003209012  0.3055958075194134  1.0000
  H   H21       1.0  0.8229122087372689  0.25000000010696705  0.5572099502601898  1.0000
  H   H22       1.0  0.1770877913920377  0.7500000003209012  0.4427900502710952  1.0000
  H   H23       1.0  0.5659425763790623  0.11329125309330111  0.3416071835645921  1.0000
  H   H24       1.0  0.4340574226081264  0.6132912533072352  0.6583928161171039  1.0000
  H   H25       1.0  0.4340574226081264  0.8867087473345671  0.6583928161171039  1.0000
  H   H26       1.0  0.5659425763790623  0.38670874712063297  0.3416071835645921  1.0000
  H   H27       1.0  0.3205206735344047  0.1123476559469251  0.38731475806343046  1.0000
  H   H28       1.0  0.6794793265941997  0.6123476561608592  0.6126852418031388  1.0000
  H   H29       1.0  0.6794793265941997  0.8876523444809431  0.6126852418031388  1.0000
  H   H30       1.0  0.3205206735344047  0.387652344267009  0.38731475806343046  1.0000
  H   H31       1.0  0.08784622782450678  0.25000000010696705  0.36770331032335163  1.0000
  H   H32       1.0  0.9121537723040977  0.7500000003209012  0.6322966895432177  1.0000
  H   H33       1.0  0.8109646911273313  0.25000000010696705  0.3420433150415803  1.0000
  H   H34       1.0  0.18903530900127313  0.7500000003209012  0.6579566848249889  1.0000
  H   H35       1.0  0.6367151782861903  0.25000000010696705  0.1818775538822989  1.0000
  H   H36       1.0  0.3632848218431163  0.7500000003209012  0.818122446648986  1.0000
  H   H37       1.0  0.7499735162184431  0.25000000010696705  0.04825377728037553  1.0000
  H   H38       1.0  0.25002648391016136  0.7500000003209012  0.9517462225861938  1.0000
  H   H39       1.0  0.030403760497310812  0.25000000010696705  0.07326495307036572  1.0000
  H   H40       1.0  0.9695962396312936  0.7500000003209012  0.9267350467962037  1.0000
  C   C1        1.0  0.0434011754419617  0.25000000010696705  0.8120993781357633  1.0000
  C   C2        1.0  0.9565988246866429  0.7500000003209012  0.18790062173080604  1.0000
  C   C3        1.0  0.32081017662306693  0.25000000010696705  0.7666156401014286  1.0000
  C   C4        1.0  0.6791898223641217  0.7500000003209012  0.23338435958026738  1.0000
  C   C5        1.0  0.04918341899285179  0.25000000010696705  0.7209245320996686  1.0000
  C   C6        1.0  0.9508165811357526  0.7500000003209012  0.2790754677669008  1.0000
  C   C7        1.0  0.17580053481967386  0.25000000010696705  0.8882759850670309  1.0000
  C   C8        1.0  0.8241994653089305  0.7500000003209012  0.11172401479953854  1.0000
  C   C9        1.0  0.4562030047554805  0.25000000010696705  0.9285305618869376  1.0000
  C   C10       1.0  0.5437969953731239  0.7500000003209012  0.07146943797963175  1.0000
  C   C11       1.0  0.1854763151044653  0.25000000010696705  0.6003745525311458  1.0000
  C   C12       1.0  0.8145236850241392  0.7500000003209012  0.39962544733542366  1.0000
  C   C13       1.0  0.8217091599765239  0.25000000010696705  0.8850967247339973  1.0000
  C   C14       1.0  0.17829084015278254  0.7500000003209012  0.11490327579728776  1.0000
  C   C15       1.0  0.8115197474389109  0.25000000010696705  0.7185776275390627  1.0000
  C   C16       1.0  0.18848025268969362  0.7500000003209012  0.28142237232750666  1.0000
  C   C17       1.0  0.6133555821603698  0.25000000010696705  0.47454366559250843  1.0000
  C   C18       1.0  0.3866444179682347  0.7500000003209012  0.5254563342740609  1.0000
  C   C19       1.0  0.5292472747618888  0.25000000010696705  0.3733813499300362  1.0000
  C   C20       1.0  0.4707527253667156  0.7500000003209012  0.6266186499365332  1.0000
  C   C21       1.0  0.35723912353060383  0.25000000010696705  0.3567548360698943  1.0000
  C   C22       1.0  0.6427608765980005  0.7500000003209012  0.6432451637966751  1.0000
  C   C23       1.0  0.07896552863501759  0.25000000010696705  0.22212405055114312  1.0000
  C   C24       1.0  0.9210344714935869  0.7500000003209012  0.7778759493154263  1.0000
  C   C25       1.0  0.015214107720219238  0.25000000010696705  0.2973319822383307  1.0000
  C   C26       1.0  0.9847858924083851  0.7500000003209012  0.7026680176282387  1.0000
  C   C27       1.0  0.8570638608768831  0.25000000010696705  0.28239332859981403  1.0000
  C   C28       1.0  0.14293613811100778  0.7500000003209012  0.7176066717465975  1.0000
  C   C29       1.0  0.7602600178437102  0.25000000010696705  0.19312029066890113  1.0000
  C   C30       1.0  0.23973998228559631  0.7500000003209012  0.8068797098623837  1.0000
  C   C31       1.0  0.8239416954311876  0.25000000010696705  0.11833270766413369  1.0000
  C   C32       1.0  0.17605830355670332  0.7500000003209012  0.8816672926822778  1.0000
  C   C33       1.0  0.9814394836593983  0.25000000010696705  0.1319741541534912  1.0000
  C   C34       1.0  0.018560516469206183  0.7500000003209012  0.8680258457130782  1.0000
  N   N1        1.0  0.88962938882212  0.25000000010696705  0.808330252116232  1.0000
  N   N2        1.0  0.11037061130648461  0.7500000003209012  0.19166974775033743  1.0000
  N   N3        1.0  0.1843166196504862  0.25000000010696705  0.697191799354463  1.0000
  N   N4        1.0  0.8156833804781182  0.7500000003209012  0.30280820051210633  1.0000
  N   N5        1.0  0.9052034891613724  0.25000000010696705  0.6628031937741418  1.0000
  N   N6        1.0  0.094796510967232  0.7500000003209012  0.3371968060924275  1.0000
  N   N7        1.0  0.31072762159682266  0.25000000010696705  0.8579103327309336  1.0000
  N   N8        1.0  0.6892723785324839  0.7500000003209012  0.14208966780035123  1.0000
  O   O1        1.0  0.180895477475508  0.25000000010696705  0.9715756547502052  1.0000
  O   O2        1.0  0.8191045226530964  0.7500000003209012  0.02842434511636411  1.0000
  O   O3        1.0  0.44680765218089735  0.25000000010696705  0.7496505157248536  1.0000
  O   O4        1.0  0.5531923479484092  0.7500000003209012  0.25034948480643127  1.0000
  O   O5        1.0  0.5508822365573839  0.25000000010696705  0.5377016196214538  1.0000
  O   O6        1.0  0.44911776243050705  0.7500000003209012  0.46229838072495766  1.0000
  O   O7        1.0  0.7645692589478286  0.25000000010696705  0.48702849183393954  1.0000
  O   O8        1.0  0.23543074118077584  0.7500000003209012  0.5129715080326299  1.0000
  S   S1        1.0  0.27594570645295396  0.25000000010696705  0.2331692768666934  1.0000
  S   S2        1.0  0.7240542936756506  0.7500000003209012  0.766830722999876  1.0000
