data_image0
_chemical_formula_structural       H34C40N6O12
_chemical_formula_sum              "H34 C40 N6 O12"
_cell_length_a       9.554431006475678
_cell_length_b       9.53693835332345
_cell_length_c       10.492278203539394
_cell_angle_alpha    98.31671045924936
_cell_angle_beta     93.78964018749815
_cell_angle_gamma    111.54948912559944

_space_group_name_H-M_alt    "P 1"
_space_group_IT_number       1

loop_
  _space_group_symop_operation_xyz
  'x, y, z'

loop_
  _atom_site_type_symbol
  _atom_site_label
  _atom_site_symmetry_multiplicity
  _atom_site_fract_x
  _atom_site_fract_y
  _atom_site_fract_z
  _atom_site_occupancy
  H   H1        1.0  0.4686750240475866  0.5918517737929184  0.5930403574739987  1.0000
  H   H2        1.0  0.5313249761568173  0.4081482270180559  0.40695964274557733  1.0000
  H   H3        1.0  0.9690381524334992  0.00563507565161068  0.5959791712344905  1.0000
  H   H4        1.0  0.03096184719507394  0.9943649238347951  0.40402082800193484  1.0000
  H   H5        1.0  0.7429079830484098  0.0012187961828768554  0.46226606601415776  1.0000
  H   H6        1.0  0.25709201658016323  0.9987812033035292  0.5377339332222676  1.0000
  H   H7        1.0  0.21924207394106385  0.7101602876546964  0.42014388309233264  1.0000
  H   H8        1.0  0.7807579256875092  0.2898397118317096  0.5798561161440927  1.0000
  H   H9        1.0  0.22422254101405098  0.797103655700431  0.7623683857389513  1.0000
  H   H10       1.0  0.7757774587683056  0.20289634398074236  0.23763161446873454  1.0000
  H   H11       1.0  0.4841854112151728  0.9374784998113561  0.7342352869481308  1.0000
  H   H12       1.0  0.5158145885671839  0.06252149986981731  0.26576471325955503  1.0000
  H   H13       1.0  0.7001429141403493  0.9466175316227867  0.8923012304156438  1.0000
  H   H14       1.0  0.29985708548822365  0.05338246786361923  0.10769876882078148  1.0000
  H   H15       1.0  0.16429029435567688  0.6678246908706459  0.9367354547205007  1.0000
  H   H16       1.0  0.8357097052728962  0.33217530861576017  0.06326454451592474  1.0000
  H   H17       1.0  0.36678149395430865  0.6703489298875639  0.10584767367381952  1.0000
  H   H18       1.0  0.6332185056742645  0.32965106959884216  0.8941523255626058  1.0000
  H   H19       1.0  0.9371012710186724  0.5946114156617623  0.46106010739142095  1.0000
  H   H20       1.0  0.06289872903194803  0.4053885849544446  0.5389398918568947  1.0000
  H   H21       1.0  0.6183950811374631  0.5723909849642702  0.07968343647143213  1.0000
  H   H22       1.0  0.38160491849111006  0.42760901452213596  0.9203165627649933  1.0000
  H   H23       1.0  0.7508258417303498  0.6715609283482297  0.9800658746739117  1.0000
  H   H24       1.0  0.24917415805200677  0.3284390713329438  0.019934125533773963  1.0000
  H   H25       1.0  0.23485797369797518  0.8199864924623852  0.22251753353322729  1.0000
  H   H26       1.0  0.765142025930598  0.18001350702402086  0.7774824657031981  1.0000
  H   H27       1.0  0.6376748690361831  0.8229871749097566  0.20782099218440933  1.0000
  H   H28       1.0  0.36232513116822085  0.1770128259012178  0.7921790080351667  1.0000
  H   H29       1.0  0.775587428327981  0.9230501654729928  0.11168360230680519  1.0000
  H   H30       1.0  0.2244125714543756  0.07694983420818048  0.8883163979008806  1.0000
  H   H31       1.0  0.020809394590744445  0.8080805444373484  0.05945828649941008  1.0000
  H   H32       1.0  0.9791906051916122  0.1919194552438249  0.9405417137082756  1.0000
  H   H33       1.0  0.710859868554873  0.5704090622563853  0.3100909530154521  1.0000
  H   H34       1.0  0.28914013122748344  0.42959093742478793  0.6899090471922338  1.0000
  C   C1        1.0  0.45068327874632225  0.7965069963578978  0.4447175773784108  1.0000
  C   C2        1.0  0.5493167225002533  0.20349300444334878  0.5552824228300606  1.0000
  C   C3        1.0  0.99516280897313  0.8134741778214784  0.7459822177374085  1.0000
  C   C4        1.0  0.0048371908092267124  0.1865258218596951  0.2540177824702774  1.0000
  C   C5        1.0  0.5784087462867503  0.6815700329767046  0.5913175414478501  1.0000
  C   C6        1.0  0.4215912539176537  0.31842996783426974  0.408682458771726  1.0000
  C   C7        1.0  0.7081525794705205  0.6824139266861744  0.6612552001986576  1.0000
  C   C8        1.0  0.2918474203118362  0.31758607299499897  0.3387448000090282  1.0000
  C   C9        1.0  0.8596984782508187  0.9128738285396657  0.5926859802450324  1.0000
  C   C10       1.0  0.14030152195358528  0.08712617227130857  0.40731401997454375  1.0000
  C   C11       1.0  0.5897628663932343  0.7957673212248552  0.5188690171794134  1.0000
  C   C12       1.0  0.41023713365738607  0.20423267939135176  0.48113098206890237  1.0000
  C   C13       1.0  0.8515687022837279  0.79830523306711  0.665098520564446  1.0000
  C   C14       1.0  0.1484312983870168  0.20169476640956824  0.33490147866087455  1.0000
  C   C15       1.0  0.7325474512532903  0.9113399900445415  0.5188592725173146  1.0000
  C   C16       1.0  0.2674525485290663  0.08866000963663197  0.4811407276903713  1.0000
  C   C17       1.0  0.4657081265195794  0.8771245304232028  0.8160148485930498  1.0000
  C   C18       1.0  0.5342918736848246  0.12287547038777151  0.18398515162652637  1.0000
  C   C19       1.0  0.5827653477024101  0.8831361780354174  0.9050143809558531  1.0000
  C   C20       1.0  0.4172346520799465  0.11686382164575596  0.09498561925183283  1.0000
  C   C21       1.0  0.5502327996958413  0.8102419242237656  0.012361267598711135  1.0000
  C   C22       1.0  0.44976720008651533  0.18975807545740775  0.9876387326089747  1.0000
  C   C23       1.0  0.8480662189283196  0.68629552867158  0.17173024429277223  1.0000
  C   C24       1.0  0.15193378127608428  0.31370447213939423  0.8282697559268037  1.0000
  C   C25       1.0  0.2849424427475639  0.7256280143906126  0.9319849153987577  1.0000
  C   C26       1.0  0.7150575570347927  0.27437198529056067  0.06801508480892816  1.0000
  C   C27       1.0  0.3971063889887482  0.7289936482926491  0.0241002329553213  1.0000
  C   C28       1.0  0.6028936110618722  0.2710063523235579  0.9758997662929945  1.0000
  C   C29       1.0  0.9497971814458855  0.6385177897994924  0.3704664179604848  1.0000
  C   C30       1.0  0.050202818336470986  0.361482209881681  0.629533582247201  1.0000
  C   C31       1.0  0.7176985464003152  0.6770117612396404  0.07820277019919093  1.0000
  C   C32       1.0  0.2823014532282579  0.3229882382467656  0.9217972290372345  1.0000
  C   C33       1.0  0.11595518710781112  0.7654618947829845  0.2356153755022553  1.0000
  C   C34       1.0  0.8840448130965929  0.2345381060279898  0.7643846247173207  1.0000
  C   C35       1.0  0.6750508707408492  0.8184442769246532  0.11093324959973176  1.0000
  C   C36       1.0  0.32494913035194284  0.18155572368182607  0.889066749637479  1.0000
  C   C37       1.0  0.9979363967484167  0.7583058552922125  0.14704271851033435  1.0000
  C   C38       1.0  0.0020636030339397583  0.2416941443889607  0.8529572816973513  1.0000
  C   C39       1.0  0.8252817887671889  0.6263794458191138  0.2864907655029536  1.0000
  C   C40       1.0  0.17471821128343148  0.37362055479709316  0.713509233745362  1.0000
  N   N1        1.0  0.6904831630918015  0.5596021763938381  0.7344546962742702  1.0000
  N   N2        1.0  0.30951683711260247  0.44039782441713615  0.26554530394530595  1.0000
  N   N3        1.0  0.09247637512137646  0.7065558280898773  0.3447947263453417  1.0000
  N   N4        1.0  0.9075236255493684  0.29344417138680107  0.6552052728799789  1.0000
  N   N5        1.0  0.32064783989476525  0.7991308471246639  0.8312167786026735  1.0000
  N   N6        1.0  0.6793521597338078  0.20086915236174213  0.1687832206337518  1.0000
  O   O1        1.0  0.46092381454247455  0.8768530611003618  0.3598515282428081  1.0000
  O   O2        1.0  0.5390761852398821  0.12314693858081162  0.6401484719648777  1.0000
  O   O3        1.0  0.09387366866720352  0.7878500799530418  0.6792598490682462  1.0000
  O   O4        1.0  0.9061263311151531  0.21214991972813158  0.32074015113943954  1.0000
  O   O5        1.0  0.00876623785971038  0.858734364062205  0.8658452324926406  1.0000
  O   O6        1.0  0.9912337619226461  0.14126563561896832  0.13415476771504514  1.0000
  O   O7        1.0  0.5597040934988202  0.4799427134710776  0.7536893307336843  1.0000
  O   O8        1.0  0.4402959062835365  0.520057286210096  0.2463106694740016  1.0000
  O   O9        1.0  0.32293327006917577  0.7067360956739516  0.47841003606398036  1.0000
  O   O10       1.0  0.6770667299814446  0.2932639049422554  0.5215899631843354  1.0000
  O   O11       1.0  0.8057302879501225  0.5407575263402816  0.7759769652046644  1.0000
  O   O12       1.0  0.1942697122542813  0.45924247447069255  0.22402303501491155  1.0000
