data_image0
_chemical_formula_structural       H20C30N2O2Cl4
_chemical_formula_sum              "H20 C30 N2 O2 Cl4"
_cell_length_a       8.680586157333263
_cell_length_b       8.759448742587644
_cell_length_c       9.688095649050664
_cell_angle_alpha    94.15185509991778
_cell_angle_beta     115.31653840668518
_cell_angle_gamma    91.98243629262056

_space_group_name_H-M_alt    "P 1"
_space_group_IT_number       1

loop_
  _space_group_symop_operation_xyz
  'x, y, z'

loop_
  _atom_site_type_symbol
  _atom_site_label
  _atom_site_symmetry_multiplicity
  _atom_site_fract_x
  _atom_site_fract_y
  _atom_site_fract_z
  _atom_site_occupancy
  H   H1        1.0  0.6283895331500797  0.2967936221639053  0.11280079047156544  1.0000
  H   H2        1.0  0.3716104667880223  0.7032063772313857  0.8871992093557759  1.0000
  H   H3        1.0  0.48724895541943924  0.2503395692323917  0.8277252447105937  1.0000
  H   H4        1.0  0.5127510445538661  0.7496604313058016  0.17227475512337592  1.0000
  H   H5        1.0  0.016729855924846552  0.3987943627403631  0.8218452759404157  1.0000
  H   H6        1.0  0.9832701440484587  0.6012056377978304  0.17815472389355397  1.0000
  H   H7        1.0  0.17088152616807037  0.019108521219557643  0.7159247149858784  1.0000
  H   H8        1.0  0.8291184737700316  0.9808914781757335  0.284075284841463  1.0000
  H   H9        1.0  0.24858526577363083  0.3096643468032861  0.40649232675455294  1.0000
  H   H10       1.0  0.7514147347126621  0.6903356526961489  0.5935076742199807  1.0000
  H   H11       1.0  0.3051984392322215  0.08265406700024408  0.27164640667639656  1.0000
  H   H12       1.0  0.6948015607410838  0.9173459335379495  0.7283535931575732  1.0000
  H   H13       1.0  0.15651314246820414  0.4430715433148707  0.10747452134577656  1.0000
  H   H14       1.0  0.8434868574698979  0.5569284560804204  0.8925254784815648  1.0000
  H   H15       1.0  0.23519889964483223  0.7947475578049575  0.5858859662831176  1.0000
  H   H16       1.0  0.7648011002932699  0.20525244159033357  0.41411403354422366  1.0000
  H   H17       1.0  0.16478064873217502  0.051954657127577006  0.9867180075006416  1.0000
  H   H18       1.0  0.835219350600451  0.9480453423637979  0.013281993470916673  1.0000
  H   H19       1.0  0.04616013852836704  0.8613328483153231  0.9182915354426372  1.0000
  H   H20       1.0  0.9538398614097351  0.13866715107996794  0.08170846438470422  1.0000
  C   C1        1.0  0.3995492780785341  0.37194410376977916  0.12514602156633223  1.0000
  C   C2        1.0  0.6004507218595679  0.6280558956255119  0.8748539782610091  1.0000
  C   C3        1.0  0.20435452738132312  0.17850408700761286  0.5678687650001316  1.0000
  C   C4        1.0  0.7956454725919822  0.8214959135305805  0.4321312348338381  1.0000
  C   C5        1.0  0.49330570203194424  0.31482434370672713  0.048610552380446134  1.0000
  C   C6        1.0  0.5066942979413611  0.6851756568314663  0.9513894474535236  1.0000
  C   C7        1.0  0.04252115155000325  0.575851092416303  0.6014582382280704  1.0000
  C   C8        1.0  0.9574788484233021  0.42414890812189054  0.39854176160589927  1.0000
  C   C9        1.0  0.4145831810970979  0.2913009575908872  0.889240260823838  1.0000
  C   C10       1.0  0.5854168188410042  0.7086990418044039  0.11075973900350336  1.0000
  C   C11       1.0  0.15058413632966874  0.3783070448107528  0.885986200122307  1.0000
  C   C12       1.0  0.8494158636084334  0.6216929545845382  0.11401379970503436  1.0000
  C   C13       1.0  0.20268544614936698  0.034029797912501554  0.6201294121287717  1.0000
  C   C14       1.0  0.7973145543721292  0.9659702027298357  0.3798705888523904  1.0000
  C   C15       1.0  0.24220513670693122  0.1963846609344336  0.44349215655281715  1.0000
  C   C16       1.0  0.7577948632311707  0.8036153384608573  0.5565078432745242  1.0000
  C   C17       1.0  0.0726941507905406  0.41672367341327776  0.5628101394740755  1.0000
  C   C18       1.0  0.9273058491827647  0.5832763271249158  0.4371898603598942  1.0000
  C   C19       1.0  0.24431582114916112  0.3255304843503317  0.8079312661271032  1.0000
  C   C20       1.0  0.7556841788241443  0.6744695161878618  0.19206873370686656  1.0000
  C   C21       1.0  0.2753666476381641  0.06951012397447527  0.36837053014142146  1.0000
  C   C22       1.0  0.7246333523351413  0.9304898765637181  0.6316294696925482  1.0000
  C   C23       1.0  0.2283422507662792  0.4018641793214637  0.045483140263352075  1.0000
  C   C24       1.0  0.7716577491718227  0.5981358200738273  0.9545168595639892  1.0000
  C   C25       1.0  0.23703695999330598  0.9071031459330028  0.5459575465952511  1.0000
  C   C26       1.0  0.7629630399799994  0.09289685460519068  0.45404245323871867  1.0000
  C   C27       1.0  0.27077617632209455  0.9253476203987047  0.4193490434675615  1.0000
  C   C28       1.0  0.7292238236512109  0.07465238013948862  0.5806509563664083  1.0000
  C   C29       1.0  0.056286052454962605  0.97615903954024  0.974624781221405  1.0000
  C   C30       1.0  0.9437139475183426  0.023840960997953475  0.02537521861256468  1.0000
  N   N1        1.0  0.16798451714654947  0.30891031644952216  0.6436573419406  1.0000
  N   N2        1.0  0.8320154828267559  0.6910896840886712  0.3563426578933698  1.0000
  O   O1        1.0  0.09396755676609621  0.6654583858707296  0.7195203376836332  1.0000
  O   O2        1.0  0.9060324431720058  0.33454161352456147  0.280479662143708  1.0000
  Cl  Cl1       1.0  0.49960058223935117  0.40989589095770435  0.3231620929287947  1.0000
  Cl  Cl2       1.0  0.5003994177339541  0.5901041095804891  0.676837906905175  1.0000
  Cl  Cl3       1.0  0.3067152253546678  0.7653144488179875  0.3239369666262679  1.0000
  Cl  Cl4       1.0  0.6932847745834342  0.23468555057730361  0.6760630332010734  1.0000
