data_image0
_chemical_formula_structural       H106C62N2O10
_chemical_formula_sum              "H106 C62 N2 O10"
_cell_length_a       13.55037594177517
_cell_length_b       8.048890703772118
_cell_length_c       13.58902765747275
_cell_angle_alpha    90.0
_cell_angle_beta     108.96807193925126
_cell_angle_gamma    90.0

_space_group_name_H-M_alt    "P 1"
_space_group_IT_number       1

loop_
  _space_group_symop_operation_xyz
  'x, y, z'

loop_
  _atom_site_type_symbol
  _atom_site_label
  _atom_site_symmetry_multiplicity
  _atom_site_fract_x
  _atom_site_fract_y
  _atom_site_fract_z
  _atom_site_occupancy
  H   H1        1.0  0.12021611675077469  0.37289081694119813  0.8445289151997631  1.0000
  H   H2        1.0  0.8797838829586642  0.8728908167068729  0.1554710846269124  1.0000
  H   H3        1.0  0.05448322691241755  0.5122642910367362  0.7450802238566894  1.0000
  H   H4        1.0  0.9455167735773444  0.012264291271061446  0.25491977623010315  1.0000
  H   H5        1.0  0.030751386680190406  0.49992553608837326  0.9621425943086778  1.0000
  H   H6        1.0  0.9692486138095716  0.9999255358540479  0.03785740577811488  1.0000
  H   H7        1.0  0.9407811852210095  0.421236338618817  0.8466030177501875  1.0000
  H   H8        1.0  0.059218814488429236  0.9212363396268989  0.15339698207648786  1.0000
  H   H9        1.0  0.9114709764205838  0.7033044575132636  0.7705851853249505  1.0000
  H   H10       1.0  0.08852902328885483  0.20330445774758893  0.229414814501725  1.0000
  H   H11       1.0  0.0649874780932621  0.8106281412098459  0.9804525595105615  1.0000
  H   H12       1.0  0.9350125223965  0.3106281414441712  0.019547440576231055  1.0000
  H   H13       1.0  0.001982225744629311  0.9457737159273923  0.8776642586197736  1.0000
  H   H14       1.0  0.9980177739648094  0.4457737161617177  0.12233574120690191  1.0000
  H   H15       1.0  0.0937708003041879  0.81996724180973  0.7663946239143488  1.0000
  H   H16       1.0  0.9062291994052509  0.31996724080164807  0.23360537591232675  1.0000
  H   H17       1.0  0.16453166849383855  0.06301403990518888  0.8879193992101623  1.0000
  H   H18       1.0  0.8354683319959235  0.5630140396708635  0.11208060087663042  1.0000
  H   H19       1.0  0.2578702012901734  0.9543596295077088  0.8477192275165905  1.0000
  H   H20       1.0  0.7421297991995888  0.45435962974203414  0.15228077257020203  1.0000
  H   H21       1.0  0.33771106290597325  0.010483433445115022  0.02607774925863561  1.0000
  H   H22       1.0  0.6622889375837888  0.5104834344531969  0.973922250828157  1.0000
  H   H23       1.0  0.37738352451364293  0.7421342194646253  0.9760913634900131  1.0000
  H   H24       1.0  0.6226164751957959  0.24213421969895071  0.023908636336662455  1.0000
  H   H25       1.0  0.18984418810265402  0.617576744789245  0.03169039639384602  1.0000
  H   H26       1.0  0.8101558116067847  0.11757674378116312  0.9683096034328295  1.0000
  H   H27       1.0  0.34389034138018554  0.4080820042022271  0.962137835685088  1.0000
  H   H28       1.0  0.6561096591095765  0.9080820039679017  0.03786216440170465  1.0000
  H   H29       1.0  0.23414124300021125  0.3357528980650092  0.9912280479185255  1.0000
  H   H30       1.0  0.7658587574895508  0.8357528978306838  0.00877195216826706  1.0000
  H   H31       1.0  0.3990677828072588  0.2867746643544622  0.1334873931866324  1.0000
  H   H32       1.0  0.60093221690218  0.7867746641201369  0.866512606640043  1.0000
  H   H33       1.0  0.33431299852963026  0.7144694122017258  0.18065315639642987  1.0000
  H   H34       1.0  0.6656870019601318  0.2144694124360511  0.8193468436903627  1.0000
  H   H35       1.0  0.4415382036838282  0.9608533094349944  0.20435158031210007  1.0000
  H   H36       1.0  0.5584617960256106  0.46085330966931964  0.7956484195145754  1.0000
  H   H37       1.0  0.5172728699137065  0.8752821102041219  0.13277833364531022  1.0000
  H   H38       1.0  0.4827271305760556  0.37528211043844734  0.8672216664414822  1.0000
  H   H39       1.0  0.5393644434894053  0.8134921520218199  0.35571367840648793  1.0000
  H   H40       1.0  0.4606355562200336  0.3134921522561452  0.6442863214201875  1.0000
  H   H41       1.0  0.6266848541705528  0.7639233226410183  0.2887132112519839  1.0000
  H   H42       1.0  0.3733151463115728  0.26392332287534354  0.7112867895681861  1.0000
  H   H43       1.0  0.4515570042645735  0.557544561748972  0.31846137292891785  1.0000
  H   H44       1.0  0.5484429954448653  0.05754456198329729  0.6815386268977577  1.0000
  H   H45       1.0  0.5881638915600264  0.6121841756020826  0.12463911099926006  1.0000
  H   H46       1.0  0.4118361089297357  0.11218417583640787  0.8753608890875326  1.0000
  H   H47       1.0  0.5547127470845294  0.39905180331181905  0.10842322244059281  1.0000
  H   H48       1.0  0.4452872534052325  0.8990518030774938  0.8915767776461998  1.0000
  H   H49       1.0  0.4864681246807605  0.5450768523846281  0.013700097018801897  1.0000
  H   H50       1.0  0.5135318758090015  0.04507685261895342  0.9862999030679908  1.0000
  H   H51       1.0  0.31431889654787953  0.6896401447467284  0.8213541719832395  1.0000
  H   H52       1.0  0.6856811031615593  0.18964014498105372  0.17864582784343594  1.0000
  H   H53       1.0  0.2738950413663565  0.4800035361629858  0.7996197197814526  1.0000
  H   H54       1.0  0.7261049583430823  0.9800035359286605  0.20038028004522276  1.0000
  H   H55       1.0  0.20013303938800364  0.6386440540919457  0.7180208068365714  1.0000
  H   H56       1.0  0.7998669610941219  0.13864405308386388  0.2819791939835987  1.0000
  H   H57       1.0  0.6577939257498931  0.4670657533265016  0.28642714882988995  1.0000
  H   H58       1.0  0.3422060739595457  0.9670657530921764  0.7135728509967856  1.0000
  H   H59       1.0  0.5063503345056276  0.25440100945095073  0.3590082476481772  1.0000
  H   H60       1.0  0.49364966598413446  0.7544010104590327  0.6409917524386154  1.0000
  H   H61       1.0  0.5407161208779132  0.2241662194710159  0.2450826048560367  1.0000
  H   H62       1.0  0.4592838788315256  0.7241662192366906  0.7549173949706388  1.0000
  H   H63       1.0  0.6351136847918938  0.19430156496808582  0.3686878739982399  1.0000
  H   H64       1.0  0.3648863156978683  0.6943015647337605  0.6313121260885527  1.0000
  H   H65       1.0  0.7235500432209598  0.41970495119492973  0.47538386638377544  1.0000
  H   H66       1.0  0.276449956488479  0.9197049509606043  0.5246161334429  1.0000
  H   H67       1.0  0.6969671989768704  0.6299463611331891  0.44084724553308924  1.0000
  H   H68       1.0  0.3030328015128916  0.12994636136751453  0.5591527545537033  1.0000
  H   H69       1.0  0.5560294212871538  0.39870621034722625  0.5157805843024875  1.0000
  H   H70       1.0  0.4439705792026081  0.8987062101129009  0.48421941578430505  1.0000
  H   H71       1.0  0.5288844915097913  0.6101549642981764  0.4817996328353534  1.0000
  H   H72       1.0  0.47111550897997073  0.11015496453250166  0.5182003672514393  1.0000
  H   H73       1.0  0.8207341106182185  0.7939149039513307  0.872284940035021  1.0000
  H   H74       1.0  0.17926588987154352  0.2939149041856561  0.1277150600517716  1.0000
  H   H75       1.0  0.31791254861548124  0.34270023056808246  0.24972108368498297  1.0000
  H   H76       1.0  0.6820874518742809  0.8427002303337571  0.7502789164018095  1.0000
  H   H77       1.0  0.7267706668463949  0.4772184008163853  0.7692687177399969  1.0000
  H   H78       1.0  0.2732293336433671  0.97721840058206  0.23073128234679569  1.0000
  H   H79       1.0  0.6781377431409059  0.334198386957766  0.6673441281406631  1.0000
  H   H80       1.0  0.3218622565685328  0.8341983867234407  0.3326558716860123  1.0000
  H   H81       1.0  0.18140891301920772  0.04130141807543817  0.07301128661312138  1.0000
  H   H82       1.0  0.8185910866902312  0.54130141908352  0.9269887132135541  1.0000
  H   H83       1.0  0.7039084229118607  0.978718948973696  0.4432104917127409  1.0000
  H   H84       1.0  0.29609157757790133  0.4787189492080214  0.5567895083740516  1.0000
  H   H85       1.0  0.7812317885351288  0.843040854911839  0.5408637974067984  1.0000
  H   H86       1.0  0.21876821194699664  0.3430408551461644  0.45913620341337164  1.0000
  H   H87       1.0  0.8639825000017947  0.15248394656729686  0.45902427257581274  1.0000
  H   H88       1.0  0.1360175004879675  0.6524839463329716  0.5409757275109799  1.0000
  H   H89       1.0  0.8866248647920594  0.943808653835968  0.43273136804634205  1.0000
  H   H90       1.0  0.11337513491737947  0.44380865407029335  0.5672686317803334  1.0000
  H   H91       1.0  0.9751992391002615  0.8955641460781454  0.6233253544226595  1.0000
  H   H92       1.0  0.024800760609177228  0.3955641463124708  0.3766746454040161  1.0000
  H   H93       1.0  0.013924949376081455  0.13654517876419114  0.7452424093560933  1.0000
  H   H94       1.0  0.9860750503333574  0.6365451785298658  0.25475759047058216  1.0000
  H   H95       1.0  0.9406434741980141  0.2678474512009025  0.6435095354270491  1.0000
  H   H96       1.0  0.05935652551142474  0.7678474509665771  0.3564904643996265  1.0000
  H   H97       1.0  0.8573650298244474  0.969044014518007  0.7336026640310528  1.0000
  H   H98       1.0  0.14263496988499133  0.46904401475233237  0.2663973357956227  1.0000
  H   H99       1.0  0.8291618396466276  0.179513847706101  0.7494980349373366  1.0000
  H   H100      1.0  0.17083816006281122  0.6795138474717757  0.2505019648893389  1.0000
  H   H101      1.0  0.0629976089264109  0.1895105383012772  0.533622921477444  1.0000
  H   H102      1.0  0.9370023907830279  0.6895105393093591  0.4663770783492315  1.0000
  H   H103      1.0  0.08551904255326033  0.9762070848244506  0.5173333203453326  1.0000
  H   H104      1.0  0.9144809571561786  0.4762070838163687  0.48266667948134284  1.0000
  H   H105      1.0  0.1358613556768373  0.06869797346618996  0.6423697825648886  1.0000
  H   H106      1.0  0.8641386448129247  0.5686979744742718  0.3576302175219039  1.0000
  C   C1        1.0  0.087887323934773  0.49939964498663214  0.8305093506550871  1.0000
  C   C2        1.0  0.912112676554989  0.9993996447523068  0.16949064943170555  1.0000
  C   C3        1.0  0.00015246434095208823  0.5178768756353602  0.8774091967136555  1.0000
  C   C4        1.0  0.9998475353684867  0.017876875869685536  0.12259080311302012  1.0000
  C   C5        1.0  0.95131439526011  0.6901769503959808  0.855589549337881  1.0000
  C   C6        1.0  0.04868560444932874  0.19017695063030612  0.14441045048879456  1.0000
  C   C7        1.0  0.03574326923977844  0.8203763789344839  0.8953504261841525  1.0000
  C   C8        1.0  0.9642567304696603  0.32037637916880923  0.10464957364252298  1.0000
  C   C9        1.0  0.12622161338293383  0.8037347217260905  0.8516560481360922  1.0000
  C   C10       1.0  0.873778386326505  0.30373472196041584  0.14834395169058337  1.0000
  C   C11       1.0  0.20562285556068785  0.9430454281659858  0.894739576568381  1.0000
  C   C12       1.0  0.794377144148751  0.4430454284003112  0.10526042325829461  1.0000
  C   C13       1.0  0.2745328325153365  0.916826604011609  0.00789772623882322  1.0000
  C   C14       1.0  0.7254671671941023  0.41682660300352703  0.9921022735878522  1.0000
  C   C15       1.0  0.32453003989786733  0.744242040358758  0.022875926803388964  1.0000
  C   C16       1.0  0.6754699605918948  0.24424204059308324  0.9771240732834036  1.0000
  C   C17       1.0  0.24273592594208737  0.6049645297976283  0.9853456179533054  1.0000
  C   C18       1.0  0.7572640737673514  0.10496453003195352  0.014654381873370181  1.0000
  C   C19       1.0  0.17695815390362352  0.6279659652517382  0.8685259506769001  1.0000
  C   C20       1.0  0.8230418458058152  0.12796596548606348  0.13147404914977542  1.0000
  C   C21       1.0  0.2944434394061728  0.432784225578748  0.0105771765625715  1.0000
  C   C22       1.0  0.7055565603032661  0.9327842253444226  0.989422823264104  1.0000
  C   C23       1.0  0.36133229789481314  0.4099789326811844  0.12537636571048233  1.0000
  C   C24       1.0  0.6386677018146256  0.909978932446859  0.8746236341161931  1.0000
  C   C25       1.0  0.4459744798555456  0.5478952979114593  0.15865509224371657  1.0000
  C   C26       1.0  0.5540255198538931  0.047895298145784644  0.841344907582959  1.0000
  C   C27       1.0  0.389065323667478  0.716577312609921  0.13603687367700112  1.0000
  C   C28       1.0  0.6109346760419608  0.21657731284424633  0.8639631261496744  1.0000
  C   C29       1.0  0.4737269622208159  0.8442992742857353  0.18610549361962192  1.0000
  C   C30       1.0  0.5262730374886229  0.3442992745200606  0.8138945062070535  1.0000
  C   C31       1.0  0.5442481146793391  0.7554726624813365  0.2842634950746225  1.0000
  C   C32       1.0  0.4557518850300997  0.2554726627156618  0.715736504752053  1.0000
  C   C33       1.0  0.5085595651242392  0.570607124513146  0.27677028039872986  1.0000
  C   C34       1.0  0.4914404345851996  0.0706071247474713  0.7232297194279456  1.0000
  C   C35       1.0  0.5223532345907417  0.5253856432686038  0.09762951713995799  1.0000
  C   C36       1.0  0.47764676589902033  0.02538564350292921  0.9023704829468345  1.0000
  C   C37       1.0  0.24570697360944768  0.6083219912161731  0.7988377383021894  1.0000
  C   C38       1.0  0.754293026099991  0.10832199145049848  0.20116226152448607  1.0000
  C   C39       1.0  0.600749491478226  0.45420845114553143  0.3285238644367838  1.0000
  C   C40       1.0  0.399250509011536  0.9542084509112061  0.6714761356500089  1.0000
  C   C41       1.0  0.5687568349783712  0.2718088666522338  0.3249877403123822  1.0000
  C   C42       1.0  0.43124316473106766  0.7718088664179085  0.6750122595142932  1.0000
  C   C43       1.0  0.659806138345595  0.5087483841818029  0.44139093120088185  1.0000
  C   C44       1.0  0.34019386136384394  0.008748384416128309  0.5586090686257937  1.0000
  C   C45       1.0  0.5920371626432631  0.5197964743190346  0.5123981018951795  1.0000
  C   C46       1.0  0.4079628370585391  0.019796474553359925  0.4876018986648734  1.0000
  C   C47       1.0  0.654045884817647  0.5763730022853774  0.6212918056056799  1.0000
  C   C48       1.0  0.3459541156644785  0.07637300251970275  0.3787081952144902  1.0000
  C   C49       1.0  0.7548849051998074  0.07517351673273892  0.5980058947754123  1.0000
  C   C50       1.0  0.24511509450963131  0.5751735164984136  0.4019941050512631  1.0000
  C   C51       1.0  0.773122714666362  0.9725455678422175  0.5128858925159758  1.0000
  C   C52       1.0  0.22687728582339997  0.47254556807654285  0.48711410757081675  1.0000
  C   C53       1.0  0.8733881074482105  0.025791761578115406  0.4920316542776061  1.0000
  C   C54       1.0  0.12661189304155154  0.5257917625861973  0.5079683458091866  1.0000
  C   C55       1.0  0.9677031755723849  0.02325475856098783  0.5916576096762718  1.0000
  C   C56       1.0  0.03229682413705386  0.5232547583266626  0.4083423901504038  1.0000
  C   C57       1.0  0.9473509362886499  0.13881407899803844  0.6725593769161144  1.0000
  C   C58       1.0  0.052649063420789066  0.6388140787637131  0.3274406229105612  1.0000
  C   C59       1.0  0.8472543801846015  0.09200806760277348  0.6959194527815844  1.0000
  C   C60       1.0  0.152745620297524  0.5920080673684482  0.30408054803858575  1.0000
  C   C61       1.0  0.06853565767636877  0.06659651866670149  0.5703704195677619  1.0000
  C   C62       1.0  0.93146434203307  0.5665965184323761  0.4296295802589135  1.0000
  N   N1        1.0  0.6919337041562157  0.4555171532248209  0.6911350567998501  1.0000
  N   N2        1.0  0.3080662955532232  0.9555171529904956  0.3088649430268253  1.0000
  O   O1        1.0  0.8752081831997616  0.7103409401894984  0.9085056934965485  1.0000
  O   O2        1.0  0.12479181729000054  0.21034094042382376  0.09149430659024423  1.0000
  O   O3        1.0  0.2906874482467513  0.41113810235355025  0.18513546153143873  1.0000
  O   O4        1.0  0.7093125522430108  0.9111381021192249  0.8148645385553538  1.0000
  O   O5        1.0  0.6677488010857366  0.7287608461686563  0.6421013452732969  1.0000
  O   O6        1.0  0.3322511994040254  0.2287608464029816  0.3578986548134956  1.0000
  O   O7        1.0  0.21921184917578837  0.9325039904545461  0.08116885229129776  1.0000
  O   O8        1.0  0.7807881505336504  0.4325039906888714  0.9188311475353778  1.0000
  O   O9        1.0  0.6701295309750067  0.14177129147314946  0.5875591534324709  1.0000
  O   O10       1.0  0.32987046873443215  0.6417712924812314  0.4124408463942046  1.0000
