data_image0
_chemical_formula_structural       H68C24N8O28P4S8
_chemical_formula_sum              "H68 C24 N8 O28 P4 S8"
_cell_length_a       4.918291892820008
_cell_length_b       10.218335348868447
_cell_length_c       25.218482882502258
_cell_angle_alpha    90.0
_cell_angle_beta     90.0
_cell_angle_gamma    90.0

_space_group_name_H-M_alt    "P 1"
_space_group_IT_number       1

loop_
  _space_group_symop_operation_xyz
  'x, y, z'

loop_
  _atom_site_type_symbol
  _atom_site_label
  _atom_site_symmetry_multiplicity
  _atom_site_fract_x
  _atom_site_fract_y
  _atom_site_fract_z
  _atom_site_occupancy
  H   H1        1.0  0.43546127124471984  0.4020794346365794  0.4119474763173859  1.0000
  H   H2        1.0  0.06453872745198135  0.5979205654741581  0.9119474762677744  1.0000
  H   H3        1.0  0.5645387281819088  0.9020794351812647  0.08805252363300255  1.0000
  H   H4        1.0  0.9354612719746471  0.0979205649294728  0.588052523583391  1.0000
  H   H5        1.0  0.8029758595184967  0.579801705241165  0.374496742488536  1.0000
  H   H6        1.0  0.6970241406380593  0.42019829486957255  0.8744967424389245  1.0000
  H   H7        1.0  0.19702413990813186  0.07980170567511272  0.12550325785838704  1.0000
  H   H8        1.0  0.3029758587885693  0.9201982944356248  0.6255032578087755  1.0000
  H   H9        1.0  0.3189881577159608  0.590205877385679  0.6661202078756134  1.0000
  H   H10       1.0  0.18101184098074038  0.4097941227250585  0.1661202079252249  1.0000
  H   H11       1.0  0.6810118417106678  0.09020587781962673  0.833879791975552  1.0000
  H   H12       1.0  0.8189881584458882  0.9097941222911109  0.33387979202516355  1.0000
  H   H13       1.0  0.7133150444205225  0.6220121265352522  0.5909185159722571  1.0000
  H   H14       1.0  0.7866849557360334  0.3779878735754854  0.09091851602186858  1.0000
  H   H15       1.0  0.28668495500610597  0.12201212599056686  0.9090814838789083  1.0000
  H   H16       1.0  0.21331504369059517  0.8779878741201707  0.40908148392851984  1.0000
  H   H17       1.0  0.05275060237452537  0.6094660722491989  0.49355759178662345  1.0000
  H   H18       1.0  0.44724939835540195  0.3905339278615386  0.993557591737012  1.0000
  H   H19       1.0  0.9472493990853293  0.10946607268314663  0.006442408163764982  1.0000
  H   H20       1.0  0.5527506010712265  0.890533927427591  0.5064424081141534  1.0000
  H   H21       1.0  0.8848945639752565  0.7381336766203546  0.5210447968349876  1.0000
  H   H22       1.0  0.6151054361812994  0.26186632349038297  0.02104479688459913  1.0000
  H   H23       1.0  0.11510543545137207  0.23813367705430227  0.9789552030161778  1.0000
  H   H24       1.0  0.3848945632453291  0.7618663230564352  0.4789552030657893  1.0000
  H   H25       1.0  0.7037088394555483  0.6141362712953953  0.49355553654800177  1.0000
  H   H26       1.0  0.7962911607010076  0.38586372881534226  0.9935555364983902  1.0000
  H   H27       1.0  0.29629115997108024  0.114136271729343  0.00644446379892121  1.0000
  H   H28       1.0  0.20370883872562093  0.8858637283813945  0.5064444637493096  1.0000
  H   H29       1.0  0.6026190361590372  0.41982521355350255  0.5450310339460116  1.0000
  H   H30       1.0  0.8973809639975188  0.580174786557235  0.045031033995623165  1.0000
  H   H31       1.0  0.39738096530081757  0.9198252131195548  0.9549689659051538  1.0000
  H   H32       1.0  0.10261903542910981  0.08017478699118266  0.45496896595476527  1.0000
  H   H33       1.0  0.7952231659348433  0.38394094498322073  0.6025674474868419  1.0000
  H   H34       1.0  0.7047768342217126  0.6160590551275168  0.10256744753645347  1.0000
  H   H35       1.0  0.20477683349178522  0.8839409445492731  0.8974325523643235  1.0000
  H   H36       1.0  0.2952231652049159  0.11605905556146452  0.39743255241393494  1.0000
  H   H37       1.0  0.2092199431071176  0.3037769180616821  0.5615156235201307  1.0000
  H   H38       1.0  0.29078005558958353  0.6962230820490555  0.061515623569742356  1.0000
  H   H39       1.0  0.7907800563195109  0.8037769176277344  0.938484376727569  1.0000
  H   H40       1.0  0.709219943837045  0.19622308248300316  0.4384843767771806  1.0000
  H   H41       1.0  0.43132957868908567  0.26009105292226553  0.2246788911291477  1.0000
  H   H42       1.0  0.06867042204084167  0.7399089471884719  0.7246788910795361  1.0000
  H   H43       1.0  0.5686704227707691  0.7600910534669508  0.2753211088212407  1.0000
  H   H44       1.0  0.9313295773857868  0.23990894664378673  0.7753211091681637  1.0000
  H   H45       1.0  0.7942241239692428  0.11446383486812477  0.1920015296939053  1.0000
  H   H46       1.0  0.7057758761873131  0.8855361652426128  0.6920015296442937  1.0000
  H   H47       1.0  0.2057758754573857  0.6144638344341771  0.30799847025648314  1.0000
  H   H48       1.0  0.29422412527254166  0.38553616567656046  0.8079984702068715  1.0000
  H   H49       1.0  0.5853845242904464  0.05100248349724714  0.23919107577186194  1.0000
  H   H50       1.0  0.9146154758661094  0.9489975166134903  0.7391910757222504  1.0000
  H   H51       1.0  0.4146154751361821  0.5510024840419324  0.2608089241785265  1.0000
  H   H52       1.0  0.08538452356051908  0.4489975160688051  0.760808924128915  1.0000
  H   H53       1.0  0.9119778833273384  0.0958783232836933  0.25356464660436845  1.0000
  H   H54       1.0  0.5880221168292175  0.9041216768270443  0.753564646554757  1.0000
  H   H55       1.0  0.0880221160992901  0.5958783228497455  0.24643535374255454  1.0000
  H   H56       1.0  0.4119778825974111  0.4041216772609919  0.746435353692943  1.0000
  H   H57       1.0  0.4298971362571338  0.172723968214201  0.31571576201058127  1.0000
  H   H58       1.0  0.0701028644727935  0.8272760318965365  0.8157157619609697  1.0000
  H   H59       1.0  0.5701028652027209  0.6727239677802532  0.18428423793980717  1.0000
  H   H60       1.0  0.9298971349538351  0.32727603233048425  0.6842842378901957  1.0000
  H   H61       1.0  0.45261482614518483  0.34622376240487845  0.3146377475191202  1.0000
  H   H62       1.0  0.047385174584742555  0.6537762377058591  0.8146377474695087  1.0000
  H   H63       1.0  0.54738517531467  0.8462237619709307  0.18536225282780278  1.0000
  H   H64       1.0  0.9526148248418859  0.1537762381398068  0.6853622527781913  1.0000
  H   H65       1.0  0.933090967353846  0.3716206212023085  0.3463084421331157  1.0000
  H   H66       1.0  0.5669090328027099  0.6283793789084291  0.846308442083504  1.0000
  H   H67       1.0  0.0669090341060087  0.8716206207683608  0.15369155821380737  1.0000
  H   H68       1.0  0.43309096662391866  0.12837937934237675  0.6536915581641958  1.0000
  C   C1        1.0  0.14298213797082895  0.6032949203103478  0.5958566115976051  1.0000
  C   C2        1.0  0.3570178607258722  0.39670507980038966  0.09585661164721666  1.0000
  C   C3        1.0  0.8570178614557995  0.10329492074429557  0.9041433882535602  1.0000
  C   C4        1.0  0.6429821387007564  0.896705079366442  0.40414338830317176  1.0000
  C   C5        1.0  0.875867222579595  0.5732454348005576  0.5681512994558988  1.0000
  C   C6        1.0  0.6241327775769608  0.42675456531017997  0.06815129950551047  1.0000
  C   C7        1.0  0.12413277684703349  0.0732454352345053  0.9318487003952663  1.0000
  C   C8        1.0  0.37586722184966764  0.9267545648762322  0.431848700444878  1.0000
  C   C9        1.0  0.8048824625026931  0.4287900426447835  0.5631822808760006  1.0000
  C   C10       1.0  0.6951175376538627  0.5712099564873211  0.06318228092561219  1.0000
  C   C11       1.0  0.19511753692393538  0.9287900431894688  0.9368177189751647  1.0000
  C   C12       1.0  0.30488246177276573  0.07120995692126877  0.4368177190247763  1.0000
  C   C13       1.0  0.8092504728746197  0.36374989106338174  0.2279090632366269  1.0000
  C   C14       1.0  0.6907495272819363  0.6362501090473558  0.7279090631870153  1.0000
  C   C15       1.0  0.19074952655200883  0.863749891608067  0.2720909367137615  1.0000
  C   C16       1.0  0.3092504741779185  0.13625010850267058  0.77209093666415  1.0000
  C   C17       1.0  0.6249902805661911  0.25113021958945275  0.24636678260732578  1.0000
  C   C18       1.0  0.8750097195903648  0.7488697805212848  0.7463667829542489  1.0000
  C   C19       1.0  0.3750097208936637  0.751130220134138  0.25363321734306266  1.0000
  C   C20       1.0  0.12499027983626372  0.24886977997659956  0.7536332172934511  1.0000
  C   C21       1.0  0.5613854037477407  0.25566454718960635  0.3054624703591866  1.0000
  C   C22       1.0  0.9386145964088152  0.7443354529211311  0.8054624707061097  1.0000
  C   C23       1.0  0.4386145956788879  0.7556645467556586  0.19453752959120185  1.0000
  C   C24       1.0  0.06138540301781329  0.24433545237644588  0.6945375295415903  1.0000
  N   N1        1.0  0.8797171994440514  0.6364450703528899  0.5151564973408482  1.0000
  N   N2        1.0  0.6202827986792784  0.36355492975784764  0.015156497390459777  1.0000
  N   N3        1.0  0.12028279998257718  0.13644506980820462  0.984843502510317  1.0000
  N   N4        1.0  0.37971720074735016  0.8635549303025329  0.48484350255992864  1.0000
  N   N5        1.0  0.738441938613283  0.12032714508006008  0.23205999176344294  1.0000
  N   N6        1.0  0.7615580615432729  0.8796728550306774  0.7320599917138314  1.0000
  N   N7        1.0  0.26155806081334554  0.6203271446461124  0.2679400081869455  1.0000
  N   N8        1.0  0.23844193788335563  0.37967285546462515  0.767940008137334  1.0000
  O   O1        1.0  0.3848772970883277  0.6009365019205395  0.4587880509666882  1.0000
  O   O2        1.0  0.11512270364159964  0.399063498190198  0.9587880513136112  1.0000
  O   O3        1.0  0.615122704371527  0.10093650235448723  0.04121194898370021  1.0000
  O   O4        1.0  0.8848772957850288  0.8990634977562504  0.5412119489340886  1.0000
  O   O5        1.0  0.1120493236289032  0.5481651197345249  0.37315645567756955  1.0000
  O   O6        1.0  0.3879506771010242  0.45183488037621267  0.873156455627958  1.0000
  O   O7        1.0  0.8879506757977254  0.0481651191898396  0.12684354466935344  1.0000
  O   O8        1.0  0.6120493243588305  0.951834880920898  0.6268435446197419  1.0000
  O   O9        1.0  0.602195122726196  0.5892160576494222  0.3653817976652893  1.0000
  O   O10       1.0  0.8978048774303599  0.4107839424613152  0.8653817976156776  1.0000
  O   O11       1.0  0.3978048787336587  0.08921605808336998  0.1346182022850992  1.0000
  O   O12       1.0  0.10219512199626869  0.9107839420273675  0.6346182022354876  1.0000
  O   O13       1.0  0.16037951532553885  0.5480487651660548  0.6430340526650652  1.0000
  O   O14       1.0  0.3396204833711623  0.45195123494468276  0.1430340527146767  1.0000
  O   O15       1.0  0.8396204841010896  0.04804876462136954  0.8569659471861002  1.0000
  O   O16       1.0  0.6603795160554663  0.951951235489368  0.35696594723571173  1.0000
  O   O17       1.0  0.31487733826063  0.6755972948925065  0.5757585088544115  1.0000
  O   O18       1.0  0.18512266043607115  0.32440270521823095  0.07575850890402305  1.0000
  O   O19       1.0  0.6851226611659985  0.1755972953264543  0.9242414909967538  1.0000
  O   O20       1.0  0.8148773389905574  0.8244027047842832  0.4242414910463654  1.0000
  O   O21       1.0  0.7453645553960943  0.47834707446172  0.24178009630510353  1.0000
  O   O22       1.0  0.7546354447604617  0.5216529256490176  0.7417800962554919  1.0000
  O   O23       1.0  0.25463544403053434  0.9783470740277722  0.25821990364528496  1.0000
  O   O24       1.0  0.24536455466616683  0.021652926082965308  0.7582199035956734  1.0000
  O   O25       1.0  0.012220356438734769  0.33027168073650276  0.19970492092902167  1.0000
  O   O26       1.0  0.48777964429119264  0.6697283193742348  0.69970492087941  1.0000
  O   O27       1.0  0.9877796429878938  0.8302716803025549  0.30029507902136676  1.0000
  O   O28       1.0  0.5122203571686621  0.1697283198081825  0.8002950789717551  1.0000
  P   P1        1.0  0.37565816553044007  0.5360436072013004  0.40430790811268336  1.0000
  P   P2        1.0  0.12434183519948731  0.4639563929094372  0.9043079080630717  1.0000
  P   P3        1.0  0.6243418338961885  0.03604360665661509  0.0956920918377051  1.0000
  P   P4        1.0  0.8756581662603674  0.9639563934541224  0.5956920917880935  1.0000
  S   S1        1.0  0.04093856859002992  0.3385855319754335  0.5213079819770488  1.0000
  S   S2        1.0  0.4590614321398974  0.661414468135304  0.02130798202666036  1.0000
  S   S3        1.0  0.9590614308365987  0.8385855315414857  0.9786920182706511  1.0000
  S   S4        1.0  0.5409385693199573  0.16141446856925173  0.47869201792372806  1.0000
  S   S5        1.0  0.8594517084622115  0.24365041026723627  0.3478103362072544  1.0000
  S   S6        1.0  0.6405482916943445  0.7563495888648682  0.8478103361576428  1.0000
  S   S7        1.0  0.14054829096441704  0.7436504108119215  0.15218966374313403  1.0000
  S   S8        1.0  0.35945170976551033  0.256349589298816  0.6521896636935225  1.0000
