data_image0
_chemical_formula_structural       H30C28N4O10S2
_chemical_formula_sum              "H30 C28 N4 O10 S2"
_cell_length_a       6.270850062934225
_cell_length_b       9.771427844578024
_cell_length_c       12.435535674644981
_cell_angle_alpha    70.12973944270908
_cell_angle_beta     83.97385474200384
_cell_angle_gamma    88.56728272758981

_space_group_name_H-M_alt    "P 1"
_space_group_IT_number       1

loop_
  _space_group_symop_operation_xyz
  'x, y, z'

loop_
  _atom_site_type_symbol
  _atom_site_label
  _atom_site_symmetry_multiplicity
  _atom_site_fract_x
  _atom_site_fract_y
  _atom_site_fract_z
  _atom_site_occupancy
  H   H1        1.0  0.9893243996043682  0.7689111894941725  0.11535325316920539  1.0000
  H   H2        1.0  0.010675599977656389  0.2310888104586725  0.8846467472570294  1.0000
  H   H3        1.0  0.7343867778620652  0.6775797318629856  0.03386718620584342  1.0000
  H   H4        1.0  0.2656132217274603  0.32242026809555124  0.9661328134143466  1.0000
  H   H5        1.0  0.3567044987607173  0.48128172054134444  0.0733440777555383  1.0000
  H   H6        1.0  0.6432955024248215  0.5187182794109223  0.9266559225896734  1.0000
  H   H7        1.0  0.7707477385679855  0.6311583684259299  0.32049247098961214  1.0000
  H   H8        1.0  0.2292522610140391  0.36884163152691524  0.6795075294366227  1.0000
  H   H9        1.0  0.5318514374115308  0.4285038960858364  0.4477267957144909  1.0000
  H   H10       1.0  0.46814856217049383  0.5714961038670086  0.5522732047117439  1.0000
  H   H11       1.0  0.06049714024520072  0.1309810966997928  0.48680463767709203  1.0000
  H   H12       1.0  0.9395028593443249  0.869018903258744  0.513195361943098  1.0000
  H   H13       1.0  0.29973697962886614  0.3320950633703388  0.3552836033193494  1.0000
  H   H14       1.0  0.7002630199606594  0.667904936588198  0.6447163963008408  1.0000
  H   H15       1.0  0.5575049550407436  0.9305467096908643  0.9442033780522048  1.0000
  H   H16       1.0  0.4424950445487821  0.06945329026767252  0.05579662156798537  1.0000
  H   H17       1.0  0.5964096377520216  0.025791534153831737  0.7951272041175798  1.0000
  H   H18       1.0  0.40359036183750396  0.9742084658047051  0.2048727955026104  1.0000
  H   H19       1.0  0.41586897736905964  0.71719323380425  0.9150742460557169  1.0000
  H   H20       1.0  0.584131022220466  0.2828067661542868  0.08492575356447332  1.0000
  H   H21       1.0  0.5961487892436094  0.7791061109484851  0.7886188956751331  1.0000
  H   H22       1.0  0.4038512103459163  0.22089388901005164  0.2113811039450569  1.0000
  H   H23       1.0  0.31382028435791837  0.8991832369342642  0.6736937763367358  1.0000
  H   H24       1.0  0.6861797152316074  0.10081676302427263  0.3263062232834543  1.0000
  H   H25       1.0  0.1738515327561492  0.7422257706471213  0.7710485969841518  1.0000
  H   H26       1.0  0.8261484668258755  0.2577742293057238  0.22895140344208298  1.0000
  H   H27       1.0  0.029165882316524946  0.0248655332602932  0.7494666088677381  1.0000
  H   H28       1.0  0.9708341172654996  0.9751344666925518  0.2505333915584968  1.0000
  H   H29       1.0  0.0024260072252048543  0.8835356515138316  0.8836146326602115  1.0000
  H   H30       1.0  0.9975739923643209  0.11646434844470517  0.11638536695997866  1.0000
  C   C1        1.0  0.05291651383874753  0.5910326165017799  0.05968362143461992  1.0000
  C   C2        1.0  0.9470834873542922  0.4089673834561789  0.940316378104547  1.0000
  C   C3        1.0  0.8519912730953172  0.6011543681941911  0.017696365545032983  1.0000
  C   C4        1.0  0.14800872649420838  0.3988456317643457  0.9823036340751571  1.0000
  C   C5        1.0  0.2000753502179686  0.48881160561068454  0.04182386687764896  1.0000
  C   C6        1.0  0.7999246509675701  0.5111883943415824  0.9581761334675628  1.0000
  C   C7        1.0  0.05015369004419122  0.49262115296181985  0.3325727174910583  1.0000
  C   C8        1.0  0.9498463095453346  0.507378846996717  0.6674272821291319  1.0000
  C   C9        1.0  0.8349063751286688  0.5225260297928033  0.35763869797781106  1.0000
  C   C10       1.0  0.16509362605686997  0.4774739701594636  0.6423613023674006  1.0000
  C   C11       1.0  0.7008582168691324  0.41003970594726125  0.42889129456562264  1.0000
  C   C12       1.0  0.29914178271289227  0.5899602940055838  0.5711087058606121  1.0000
  C   C13       1.0  0.7852545698697413  0.2711427498452391  0.47434713809599044  1.0000
  C   C14       1.0  0.21474542971228333  0.7288572501076058  0.5256528623302444  1.0000
  C   C15       1.0  0.9993988363614005  0.24036684855194115  0.4505369793560566  1.0000
  C   C16       1.0  0.0006011632281251181  0.7596331514065956  0.5494630202641335  1.0000
  C   C17       1.0  0.1326155348978609  0.35280372518844066  0.3775558883013596  1.0000
  C   C18       1.0  0.8673844662876778  0.6471962747638264  0.6224441120438522  1.0000
  C   C19       1.0  0.27322995760264474  0.017587898219428508  0.8613313304517366  1.0000
  C   C20       1.0  0.726770041986881  0.9824121017391084  0.13866866916845338  1.0000
  C   C21       1.0  0.48951358265049216  0.9470514386233221  0.8628907516453784  1.0000
  C   C22       1.0  0.5104864185425475  0.05294856133463659  0.13710924789378853  1.0000
  C   C23       1.0  0.4543630261096361  0.8087501980992541  0.8351187206763181  1.0000
  C   C24       1.0  0.5456369750834036  0.19124980185870472  0.16488127886284898  1.0000
  C   C25       1.0  0.2593633665158809  0.8417476089788617  0.7645160945239428  1.0000
  C   C26       1.0  0.7406366346696578  0.15825239097340524  0.23548390582126885  1.0000
  C   C27       1.0  0.1201871263726097  0.9440343555653168  0.8116717665340754  1.0000
  C   C28       1.0  0.879812873209415  0.05596564438752815  0.1883282338921596  1.0000
  N   N1        1.0  0.10405154046861623  0.6888375200864874  0.11574053498020803  1.0000
  N   N2        1.0  0.8959484607244236  0.3111624798714714  0.8842594645589589  1.0000
  N   N3        1.0  0.6417657139267852  0.15285712139366814  0.5485397189044816  1.0000
  N   N4        1.0  0.35823428565523946  0.8471428785591769  0.45146028152175327  1.0000
  O   O1        1.0  0.19829372866149403  0.7593431231412574  0.27594529073973445  1.0000
  O   O2        1.0  0.8017062709280317  0.24065687681727946  0.7240547088804556  1.0000
  O   O3        1.0  0.4249549479528963  0.5748681411351736  0.22020278026089446  1.0000
  O   O4        1.0  0.5750450532401433  0.4251318588227852  0.7797972192782726  1.0000
  O   O5        1.0  0.7156066625140226  0.028099251034186607  0.583418679786899  1.0000
  O   O6        1.0  0.28439333706800207  0.9719007489186584  0.4165813206393358  1.0000
  O   O7        1.0  0.4535023289220411  0.1834248570321215  0.5727061519500487  1.0000
  O   O8        1.0  0.5464976722634977  0.8165751429201453  0.427293848395163  1.0000
  O   O9        1.0  0.22956942064815464  0.1203206829930744  0.8962350835771677  1.0000
  O   O10       1.0  0.7704305789338699  0.8796793169597704  0.10376491684906701  1.0000
  S   S1        1.0  0.21742483056151854  0.6363420109228738  0.2360831302672891  1.0000
  S   S2        1.0  0.7825751690280071  0.36365798903566304  0.7639168693529009  1.0000
