data_image0
_chemical_formula_structural       H34C30N4O10S2
_chemical_formula_sum              "H34 C30 N4 O10 S2"
_cell_length_a       6.335285600373687
_cell_length_b       10.127044242618405
_cell_length_c       12.518248740271353
_cell_angle_alpha    72.90383439503452
_cell_angle_beta     85.83261660396187
_cell_angle_gamma    88.06848238568683

_space_group_name_H-M_alt    "P 1"
_space_group_IT_number       1

loop_
  _space_group_symop_operation_xyz
  'x, y, z'

loop_
  _atom_site_type_symbol
  _atom_site_label
  _atom_site_symmetry_multiplicity
  _atom_site_fract_x
  _atom_site_fract_y
  _atom_site_fract_z
  _atom_site_occupancy
  H   H1        1.0  0.9765776009136391  0.7476367841018126  0.1324095466606633  1.0000
  H   H2        1.0  0.02342239793604611  0.25236321518745647  0.8675904536669266  1.0000
  H   H3        1.0  0.7173797089523065  0.639991188362579  0.06500510238297154  1.0000
  H   H4        1.0  0.2826202914611937  0.36000881195875567  0.9349948976499238  1.0000
  H   H5        1.0  0.36814758809689174  0.5072639708771643  0.053478996942916496  1.0000
  H   H6        1.0  0.6318524107527935  0.49273602841210473  0.9465210033846734  1.0000
  H   H7        1.0  0.7806393801957315  0.6191773376585439  0.32793180789705095  1.0000
  H   H8        1.0  0.21936062021776856  0.3808226626627908  0.6720681921358445  1.0000
  H   H9        1.0  0.5527080791646118  0.4284546327596298  0.4454464220752365  1.0000
  H   H10       1.0  0.44729192127578205  0.5715453665338854  0.5545535773981483  1.0000
  H   H11       1.0  0.07866066696362038  0.142133034526196  0.4720126494800679  1.0000
  H   H12       1.0  0.9213393318672345  0.8578669657962502  0.5279873506066495  1.0000
  H   H13       1.0  0.30738603016867294  0.33186302158060177  0.3502829380397359  1.0000
  H   H14       1.0  0.6926139702448273  0.6681369787407327  0.6497170619931595  1.0000
  H   H15       1.0  0.5963277320218536  0.021476578952760852  0.9073503836585514  1.0000
  H   H16       1.0  0.40367226839164655  0.9785234213685737  0.09264961637434399  1.0000
  H   H17       1.0  0.5968382029398597  0.037381158113059705  0.7625879955404072  1.0000
  H   H18       1.0  0.40316179747364045  0.9626188422082751  0.23741200449248814  1.0000
  H   H19       1.0  0.6703254884087901  0.7948800089476498  0.8592105681643886  1.0000
  H   H20       1.0  0.32967451203160375  0.20511999034586553  0.14078943130899618  1.0000
  H   H21       1.0  0.4477164075604587  0.7854621837752561  0.9539476543895217  1.0000
  H   H22       1.0  0.5522835928718719  0.2145378155129013  0.046052345884246046  1.0000
  H   H23       1.0  0.43662874167677224  0.8373115723974953  0.700179431500836  1.0000
  H   H24       1.0  0.5633712587367279  0.16268842792383933  0.2998205685320594  1.0000
  H   H25       1.0  0.3646746419330592  0.6814380728271071  0.8045502623719036  1.0000
  H   H26       1.0  0.6353253584804409  0.31856192749422746  0.19544973766099163  1.0000
  H   H27       1.0  0.07407189199203167  0.8076081463169962  0.8818242979476123  1.0000
  H   H28       1.0  0.9259281068657167  0.19239185297763078  0.11817570157959424  1.0000
  H   H29       1.0  0.04063335431633331  0.8229635094754587  0.740487302557713  1.0000
  H   H30       1.0  0.9593666460971669  0.17703649084587586  0.25951269747518235  1.0000
  H   H31       1.0  0.200263815743086  0.05521034503752317  0.6800987851265755  1.0000
  H   H32       1.0  0.7997361846784775  0.9447896552891694  0.31990121410593664  1.0000
  H   H33       1.0  0.986719398010983  0.054110577892971204  0.7804101887934349  1.0000
  H   H34       1.0  0.013280602402517258  0.9458894224283635  0.21958981123946028  1.0000
  C   C1        1.0  0.04913703119342643  0.5838801779606644  0.06570331129602847  1.0000
  C   C2        1.0  0.9508629692200737  0.4161198223606702  0.934296688736867  1.0000
  C   C3        1.0  0.8411937072422696  0.5793192078219226  0.03576053517192437  1.0000
  C   C4        1.0  0.15880629317123057  0.42068079249941187  0.964239464860971  1.0000
  C   C5        1.0  0.20717289987797866  0.5035664189260541  0.029964109359705872  1.0000
  C   C6        1.0  0.7928271005355216  0.4964335813952805  0.9700358906731894  1.0000
  C   C7        1.0  0.05839515574568359  0.4858788543003056  0.33398917689937696  1.0000
  C   C8        1.0  0.9416048446678166  0.5141211460210289  0.6660108231335184  1.0000
  C   C9        1.0  0.8467851948228861  0.515557697479909  0.3600765586209213  1.0000
  C   C10       1.0  0.1532148055986775  0.4844423028467835  0.6399234406115909  1.0000
  C   C11       1.0  0.7186377202707028  0.40971933470311606  0.425587602233258  1.0000
  C   C12       1.0  0.2813622785789824  0.5902806645861529  0.5744123980943319  1.0000
  C   C13       1.0  0.8054618342878495  0.2770127226231023  0.46447617957941434  1.0000
  C   C14       1.0  0.19453816612565084  0.7229872776982322  0.535523820453481  1.0000
  C   C15       1.0  0.016345411697106123  0.24667810420795955  0.4403393235942452  1.0000
  C   C16       1.0  0.9836545887244573  0.7533218961187329  0.559660675638267  1.0000
  C   C17       1.0  0.14348685509332262  0.3526958392965376  0.37299945377901045  1.0000
  C   C18       1.0  0.8565131453390078  0.6473041599916198  0.6270005464947573  1.0000
  C   C19       1.0  0.29607271745058766  0.057665469691747843  0.8363772305196974  1.0000
  C   C20       1.0  0.7039272829629126  0.9423345306295867  0.16362276951319796  1.0000
  C   C21       1.0  0.5122113618111787  0.9913485773352749  0.8447949169095157  1.0000
  C   C22       1.0  0.4877886370196762  0.008651422987171413  0.1552050831772016  1.0000
  C   C23       1.0  0.5076892653559322  0.8338509211749623  0.8667690618589347  1.0000
  C   C24       1.0  0.4923107350844618  0.16614907811855312  0.13323093761445007  1.0000
  C   C25       1.0  0.36810866892217065  0.7943666074585194  0.786698907297436  1.0000
  C   C26       1.0  0.6318913315101601  0.20563339182963802  0.21330109297633182  1.0000
  C   C27       1.0  0.14408750708091475  0.8522867367727585  0.7961460025710906  1.0000
  C   C28       1.0  0.8559124933325855  0.14771326354857608  0.20385399746180474  1.0000
  C   C29       1.0  0.1442687063947878  0.010467032206277715  0.7687407934478498  1.0000
  C   C30       1.0  0.8557312924360669  0.9895329681161685  0.23125920663886745  1.0000
  N   N1        1.0  0.0964813197665732  0.6746971310782849  0.12829914498129083  1.0000
  N   N2        1.0  0.9035186790911754  0.3253028682163422  0.871700854545916  1.0000
  N   N3        1.0  0.6685361180936246  0.1652982843040298  0.5321770330807339  1.0000
  N   N4        1.0  0.3314638807372302  0.8347017160184165  0.4678229670059834  1.0000
  O   O1        1.0  0.20706488180608706  0.7356115805079424  0.2914257891164356  1.0000
  O   O2        1.0  0.792935117032831  0.2643884198198616  0.7085742101698985  1.0000
  O   O3        1.0  0.4205329471912396  0.5595299554090155  0.22450575043858512  1.0000
  O   O4        1.0  0.579467053241091  0.4404700438791419  0.7754942498351828  1.0000
  O   O5        1.0  0.7481803058941878  0.048453039530162216  0.5694900264819921  1.0000
  O   O6        1.0  0.2518196945193123  0.9515469607911723  0.4305099735509032  1.0000
  O   O7        1.0  0.47893813503314414  0.19330494486584332  0.5489241661878558  1.0000
  O   O8        1.0  0.5210618638246044  0.8066950544287836  0.4510758333393509  1.0000
  O   O9        1.0  0.24763965687501555  0.1489651294393536  0.8819426174533624  1.0000
  O   O10       1.0  0.7523603435653784  0.8510348698541617  0.11805738202002236  1.0000
  S   S1        1.0  0.21836847347930313  0.6208860885708146  0.24471269849817162  1.0000
  S   S2        1.0  0.781631526934197  0.37911391175051995  0.7552873015347238  1.0000
