data_image0
_chemical_formula_structural       H30C26N4O10S2
_chemical_formula_sum              "H30 C26 N4 O10 S2"
_cell_length_a       6.451761049381604
_cell_length_b       8.71581987690992
_cell_length_c       12.641067273876905
_cell_angle_alpha    74.11235081728016
_cell_angle_beta     82.71500837369996
_cell_angle_gamma    88.988424595745

_space_group_name_H-M_alt    "P 1"
_space_group_IT_number       1

loop_
  _space_group_symop_operation_xyz
  'x, y, z'

loop_
  _atom_site_type_symbol
  _atom_site_label
  _atom_site_symmetry_multiplicity
  _atom_site_fract_x
  _atom_site_fract_y
  _atom_site_fract_z
  _atom_site_occupancy
  H   H1        1.0  0.012649509633077262  0.7883535617968206  0.13250006377695137  1.0000
  H   H2        1.0  0.9873504903753482  0.2116464379917543  0.867499936470872  1.0000
  H   H3        1.0  0.754435845693081  0.694962651733944  0.05440447235566306  1.0000
  H   H4        1.0  0.24556415431534442  0.305037348054631  0.9455955278921603  1.0000
  H   H5        1.0  0.3571255717802651  0.4758223913742094  0.05648021571040502  1.0000
  H   H6        1.0  0.6428744282281604  0.5241776084143658  0.9435197845374185  1.0000
  H   H7        1.0  0.7972359655721517  0.6616417364728563  0.30475168017071136  1.0000
  H   H8        1.0  0.20276403443627367  0.3383582633157187  0.6952483200771121  1.0000
  H   H9        1.0  0.5396223210402515  0.45992954604814096  0.42682646722244  1.0000
  H   H10       1.0  0.46037767896817394  0.540070453740434  0.5731735330253833  1.0000
  H   H11       1.0  0.027699210379848783  0.11606805351981105  0.4914764306664382  1.0000
  H   H12       1.0  0.9723007896285767  0.8839319462687639  0.5085235695813851  1.0000
  H   H13       1.0  0.2830463744477533  0.309952799923947  0.3606376894548809  1.0000
  H   H14       1.0  0.7169536255938106  0.6900472010701336  0.6393623097805058  1.0000
  H   H15       1.0  0.2613344901503128  0.9827446088852173  0.9804372339519846  1.0000
  H   H16       1.0  0.7386655098581126  0.017255390903357627  0.019562766295838793  1.0000
  H   H17       1.0  0.44606305123937606  0.12072295733818633  0.8843105416386625  1.0000
  H   H18       1.0  0.55393694878239  0.8792770424628769  0.11568945781493879  1.0000
  H   H19       1.0  0.4517059660342364  0.7799767139046759  0.928623836483681  1.0000
  H   H20       1.0  0.5482940339741891  0.22002328588389902  0.07137616376414235  1.0000
  H   H21       1.0  0.5935906460091901  0.9152248478538638  0.8113319499437618  1.0000
  H   H22       1.0  0.4064093539992354  0.0847751519347112  0.18866805030406153  1.0000
  H   H23       1.0  0.3669043786516212  0.875582383506538  0.6941587889486538  1.0000
  H   H24       1.0  0.6330956213701447  0.12441761629452508  0.30584121050494756  1.0000
  H   H25       1.0  0.24323425629623263  0.716683807672489  0.8032667651714888  1.0000
  H   H26       1.0  0.7567657437121926  0.2833161921160861  0.19673323507633467  1.0000
  H   H27       1.0  0.03390774124465327  0.9983565808324012  0.7125216454852916  1.0000
  H   H28       1.0  0.966092258763772  0.0016434189561738031  0.2874783547625316  1.0000
  H   H29       1.0  0.976415750623301  0.8852524318376662  0.8543376965881007  1.0000
  H   H30       1.0  0.023584249385124434  0.11474756795090874  0.1456623036597227  1.0000
  C   C1        1.0  0.06398170551912354  0.5985888541902417  0.061238674627811726  1.0000
  C   C2        1.0  0.9360182945090998  0.40141114679135065  0.938761325401797  1.0000
  C   C3        1.0  0.8631751044343519  0.6109984911067162  0.029044003419423484  1.0000
  C   C4        1.0  0.13682489557407362  0.3890015086818588  0.9709559968284  1.0000
  C   C5        1.0  0.20086884031467356  0.48617559187641124  0.03195406014243499  1.0000
  C   C6        1.0  0.7991311596937517  0.5138244079121638  0.9680459401053885  1.0000
  C   C7        1.0  0.05478031354925598  0.4961715471446261  0.326463184996018  1.0000
  C   C8        1.0  0.9452196864789674  0.5038284538369662  0.6735368150335906  1.0000
  C   C9        1.0  0.8472421878752899  0.5418462142471416  0.344666740285352  1.0000
  C   C10       1.0  0.15275781215293344  0.4581537867344507  0.6553332597442568  1.0000
  C   C11       1.0  0.7032471538547497  0.43070362687486435  0.41389736425083173  1.0000
  C   C12       1.0  0.2967528461536759  0.5692963729137107  0.5861026359969915  1.0000
  C   C13       1.0  0.7712076427505462  0.2789509411804879  0.46515122166101286  1.0000
  C   C14       1.0  0.22879235725787928  0.721049058608087  0.5348487785868106  1.0000
  C   C15       1.0  0.9783073760846418  0.2340032245395655  0.44904369510936193  1.0000
  C   C16       1.0  0.02169262395692223  0.765996776454515  0.5509563041260248  1.0000
  C   C17       1.0  0.12151768754064025  0.3433939748195839  0.37695635696020235  1.0000
  C   C18       1.0  0.8784823124677852  0.6566060249689911  0.6230436432876211  1.0000
  C   C19       1.0  0.3360592993221647  0.022004416343622338  0.8937180961935526  1.0000
  C   C20       1.0  0.6639407006862608  0.9779955834449527  0.1062819040542707  1.0000
  C   C21       1.0  0.4373350954601429  0.881667571739222  0.8564953622694408  1.0000
  C   C22       1.0  0.5626649045482826  0.11833242804935301  0.14350463797838248  1.0000
  C   C23       1.0  0.2894454230206926  0.8432219474076612  0.7796174248622668  1.0000
  C   C24       1.0  0.7105545770075309  0.15677805357393107  0.22038257516734192  1.0000
  C   C25       1.0  0.10098244044571926  0.9490790118338175  0.7899561194869078  1.0000
  C   C26       1.0  0.8990175595627062  0.05092098795475761  0.21004388076091557  1.0000
  N   N1        1.0  0.1242619196634469  0.7043399121463175  0.12028440668663634  1.0000
  N   N2        1.0  0.875738080358319  0.29566008765474566  0.879715592766965  1.0000
  N   N3        1.0  0.6172925517719249  0.16136241000219806  0.5368231435701296  1.0000
  N   N4        1.0  0.3827074482365006  0.8386375897863769  0.4631768566776938  1.0000
  O   O1        1.0  0.2437260593950338  0.775291312341548  0.27792803608449673  1.0000
  O   O2        1.0  0.7562739406267323  0.22470868745951525  0.7220719633691046  1.0000
  O   O3        1.0  0.4242460553469232  0.5562895870812251  0.21132246021093554  1.0000
  O   O4        1.0  0.5757539446748429  0.4437104127198382  0.7886775392426659  1.0000
  O   O5        1.0  0.6750594797400444  0.021954386356599635  0.5711843546818194  1.0000
  O   O6        1.0  0.32494052026838094  0.9780456134319754  0.428815645566004  1.0000
  O   O7        1.0  0.4379510545679993  0.20716324955297008  0.55816668986869  1.0000
  O   O8        1.0  0.5620489454404262  0.792836750235605  0.44183331037913337  1.0000
  O   O9        1.0  0.1785633319919861  0.0830031314855298  0.8216473380842045  1.0000
  O   O10       1.0  0.8214366680362373  0.9169968694960625  0.17835266194540428  1.0000
  S   S1        1.0  0.2351933959146855  0.6386587827345384  0.2347257958568294  1.0000
  S   S2        1.0  0.7648066040937401  0.3613412170540366  0.7652742043909939  1.0000
