data_image0
_chemical_formula_structural       H34C38N8O8S2
_chemical_formula_sum              "H34 C38 N8 O8 S2"
_cell_length_a       6.534484651987325
_cell_length_b       11.95702080922329
_cell_length_c       13.074996815975856
_cell_angle_alpha    110.13159794245985
_cell_angle_beta     103.85746244253303
_cell_angle_gamma    90.59768938123588

_space_group_name_H-M_alt    "P 1"
_space_group_IT_number       1

loop_
  _space_group_symop_operation_xyz
  'x, y, z'

loop_
  _atom_site_type_symbol
  _atom_site_label
  _atom_site_symmetry_multiplicity
  _atom_site_fract_x
  _atom_site_fract_y
  _atom_site_fract_z
  _atom_site_occupancy
  H   H1        1.0  0.42523820196366874  0.24320121219902632  0.768193483872179  1.0000
  H   H2        1.0  0.5747617988836757  0.7567987875885344  0.23180651603434196  1.0000
  H   H3        1.0  0.6825420930279675  0.40728806191245553  0.849707602931228  1.0000
  H   H4        1.0  0.3174579062400716  0.5927119378717339  0.15029239754880006  1.0000
  H   H5        1.0  0.1835625958778985  0.39111352194467774  0.010450223704774435  1.0000
  H   H6        1.0  0.8164374035637356  0.6088864787429333  0.9895497763224899  1.0000
  H   H7        1.0  0.690481482908079  0.08239514426051786  0.8766416373772012  1.0000
  H   H8        1.0  0.3095185163599601  0.9176048555236713  0.12335836310282682  1.0000
  H   H9        1.0  0.9930279820264124  0.09338966763135921  0.03760908628526424  1.0000
  H   H10       1.0  0.00697201882093212  0.9066103321562016  0.9623909136212567  1.0000
  H   H11       1.0  0.6093364468862219  0.2303791530198894  0.26928783740820167  1.0000
  H   H12       1.0  0.39066355396112257  0.7696208467676714  0.7307121624983194  1.0000
  H   H13       1.0  0.30673560711259323  0.23106156420721416  0.10973265962127017  1.0000
  H   H14       1.0  0.6932643939004356  0.7689384364676435  0.8902673413560379  1.0000
  H   H15       1.0  0.26823163858409227  0.20901042298238134  0.5404836333624885  1.0000
  H   H16       1.0  0.7317683608575417  0.7909895777052297  0.4595163666647757  1.0000
  H   H17       1.0  0.42637485870114405  0.1209702321491947  0.3790689546299137  1.0000
  H   H18       1.0  0.5736251405668952  0.8790297676349947  0.6209310458501144  1.0000
  H   H19       1.0  0.8001081086658404  0.06718603465858981  0.41687838172559993  1.0000
  H   H20       1.0  0.1998918906061542  0.9328139651336621  0.5831216179926527  1.0000
  H   H21       1.0  0.0013705942052211887  0.10680033827562088  0.619430390168348  1.0000
  H   H22       1.0  0.9986294050667732  0.893199661516631  0.3805696095499046  1.0000
  H   H23       1.0  0.8206842359643456  0.19669023782406  0.7709963088562141  1.0000
  H   H24       1.0  0.17931576330369361  0.8033097619601292  0.229003691623814  1.0000
  H   H25       1.0  0.5607791472334162  0.5781763318060275  0.6733214151345964  1.0000
  H   H26       1.0  0.4392208520385784  0.4218236679862243  0.3266785845836563  1.0000
  H   H27       1.0  0.6455079394703236  0.4260910758648801  0.5058205040567809  1.0000
  H   H28       1.0  0.3544920599713105  0.5739089248227309  0.49417949597048316  1.0000
  H   H29       1.0  0.009330772921748035  0.3585750432194441  0.5265895523051242  1.0000
  H   H30       1.0  0.9906692279255965  0.6414249565681168  0.4734104476013969  1.0000
  H   H31       1.0  0.27163177322129367  0.44208801774953904  0.717744698982145  1.0000
  H   H32       1.0  0.7283682277956904  0.557911982933381  0.2822553012333876  1.0000
  H   H33       1.0  0.16075734288692028  0.5926089697151956  0.8758686173901437  1.0000
  H   H34       1.0  0.8392426563850743  0.4073910300770562  0.12413138232810904  1.0000
  C   C1        1.0  0.4241435079538655  0.38509663803845023  0.9206325577006829  1.0000
  C   C2        1.0  0.575856491318129  0.6149033617538016  0.07936744201756983  1.0000
  C   C3        1.0  0.6018827194018747  0.44785228334567373  0.9154642350841212  1.0000
  C   C4        1.0  0.3981172798701199  0.5521477164465781  0.08453576463413143  1.0000
  C   C5        1.0  0.32247880661512596  0.43827037844856054  0.005959765804157714  1.0000
  C   C6        1.0  0.6775211942322186  0.5617296213390002  0.9940402341023633  1.0000
  C   C7        1.0  0.48113683550937886  0.15437189065465226  0.9840570101807876  1.0000
  C   C8        1.0  0.5188631653379656  0.8456281091329086  0.015942989725733315  1.0000
  C   C9        1.0  0.6719656257025854  0.11483831643729063  0.9621617234793055  1.0000
  C   C10       1.0  0.3280343735694089  0.8851616833549611  0.03783827623894714  1.0000
  C   C11       1.0  0.8405145042833585  0.11862366282314292  0.05150453525930027  1.0000
  C   C12       1.0  0.15948549656398597  0.881376336964418  0.9484954646472208  1.0000
  C   C13       1.0  0.8131432031482485  0.16014028544084238  0.16024475230538776  1.0000
  C   C14       1.0  0.18685679612374592  0.8398597143514093  0.8397552474128649  1.0000
  C   C15       1.0  0.6231524061471029  0.19930497586932655  0.18297612904039906  1.0000
  C   C16       1.0  0.3768475931248917  0.8006950239229254  0.8170238706778536  1.0000
  C   C17       1.0  0.4548081575243431  0.19753324455244367  0.09370052934768973  1.0000
  C   C18       1.0  0.5451918417476513  0.802466755239808  0.9062994703705629  1.0000
  C   C19       1.0  0.43142633553049575  0.18621683184720084  0.554762201844841  1.0000
  C   C20       1.0  0.5685736639111383  0.8137831688404102  0.4452377981824232  1.0000
  C   C21       1.0  0.5205921134534077  0.136925466295139  0.4644787838070761  1.0000
  C   C22       1.0  0.4794078858146315  0.8630745334890503  0.535521216672952  1.0000
  C   C23       1.0  0.72830737423276  0.10708389411726817  0.486357776271089  1.0000
  C   C24       1.0  0.27169262678422407  0.8929161065656518  0.5136422239444436  1.0000
  C   C25       1.0  0.8393860627146463  0.12888629876459567  0.59772136025882  1.0000
  C   C26       1.0  0.16061393830233764  0.8711137019183244  0.40227863995671265  1.0000
  C   C27       1.0  0.738300435563733  0.17892582769061965  0.6829730124733663  1.0000
  C   C28       1.0  0.26169956528361155  0.8210741720969413  0.31702698743315477  1.0000
  C   C29       1.0  0.718111509361226  0.5465038103817597  0.6795907853873091  1.0000
  C   C30       1.0  0.2818884899107684  0.4534961894104921  0.3204092143309435  1.0000
  C   C31       1.0  0.7650275156050453  0.4619963312007743  0.5861497359469044  1.0000
  C   C32       1.0  0.23497248541193885  0.5380036694821458  0.4138502642686282  1.0000
  C   C33       1.0  0.9675309799737508  0.42382225663883116  0.5982228532086584  1.0000
  C   C34       1.0  0.032469019298243765  0.5761777431534206  0.4017771465095942  1.0000
  C   C35       1.0  0.11282564399613364  0.47053034173781033  0.7035408309984624  1.0000
  C   C36       1.0  0.8871743552758607  0.5294696580544416  0.2964591687197902  1.0000
  C   C37       1.0  0.05076375317775141  0.554630431777701  0.7921723802671838  1.0000
  C   C38       1.0  0.9492362460942431  0.44536956801455074  0.20782761945106876  1.0000
  N   N1        1.0  0.3525178321929691  0.27001144250073367  0.838078044335552  1.0000
  N   N2        1.0  0.6474821670790254  0.7299885572915181  0.16192195538270074  1.0000
  N   N3        1.0  0.9933099065404832  0.16399131670347564  0.2533177886599014  1.0000
  N   N4        1.0  0.006690092731511291  0.8360086830887762  0.7466822110583513  1.0000
  N   N5        1.0  0.5376258874444461  0.20682286979931144  0.6621284374961134  1.0000
  N   N6        1.0  0.46237411182754845  0.7931771299929402  0.3378715622221392  1.0000
  N   N7        1.0  0.8573473537189952  0.5935148186348964  0.7811801495075282  1.0000
  N   N8        1.0  0.1426526471283493  0.4064851811526644  0.2188198503989927  1.0000
  O   O1        1.0  0.2702422477194481  0.053021274507759855  0.7702967149206201  1.0000
  O   O2        1.0  0.729757751722186  0.946978726179851  0.22970328510664406  1.0000
  O   O3        1.0  0.08739286758998101  0.18113624959475338  0.9093181575345374  1.0000
  O   O4        1.0  0.9126071316820135  0.8188637501974984  0.09068184218371537  1.0000
  O   O5        1.0  0.9795477331185669  0.21546991156404535  0.3513491731662399  1.0000
  O   O6        1.0  0.02045226615342756  0.7845300882282065  0.6486508265520127  1.0000
  O   O7        1.0  0.15133937754175292  0.11569426470725555  0.22911076552590015  1.0000
  O   O8        1.0  0.8486606233016362  0.8843057350722429  0.7708892351423964  1.0000
  S   S1        1.0  0.27566862301866857  0.15805096702623653  0.8686209140060742  1.0000
  S   S2        1.0  0.7243313778286758  0.8419490327613242  0.13137908590044683  1.0000
