data_image0
_chemical_formula_structural       H104C104N20I8
_chemical_formula_sum              "H104 C104 N20 I8"
_cell_length_a       10.880050170917121
_cell_length_b       19.568132365114344
_cell_length_c       12.867365270602884
_cell_angle_alpha    90.0
_cell_angle_beta     112.75298274328053
_cell_angle_gamma    90.0

_space_group_name_H-M_alt    "P 1"
_space_group_IT_number       1

loop_
  _space_group_symop_operation_xyz
  'x, y, z'

loop_
  _atom_site_type_symbol
  _atom_site_label
  _atom_site_symmetry_multiplicity
  _atom_site_fract_x
  _atom_site_fract_y
  _atom_site_fract_z
  _atom_site_occupancy
  H   H1        1.0  0.5207689425793202  0.4515322655805415  0.30806324682648395  1.0000
  H   H2        1.0  0.47923105787382214  0.9515322654498609  0.19193675239269029  1.0000
  H   H3        1.0  0.47923105781845554  0.5484677341580976  0.6919367530804029  1.0000
  H   H4        1.0  0.5207689425239536  0.04846773428877805  0.8080632475141966  1.0000
  H   H5        1.0  0.6748535228505256  0.3703386738593156  0.27319830533079237  1.0000
  H   H6        1.0  0.3251464770522019  0.8703386737286352  0.22680169472018885  1.0000
  H   H7        1.0  0.32514647754725  0.6296613263903584  0.7268016945760943  1.0000
  H   H8        1.0  0.6748535224215674  0.1296613260100039  0.7731983051758337  1.0000
  H   H9        1.0  0.4090722454180263  0.28561474778062407  0.47987093484290116  1.0000
  H   H10       1.0  0.5909277544847011  0.7856147476499437  0.020129065208080044  1.0000
  H   H11       1.0  0.5909277540557428  0.71438525246905  0.5201290650531213  1.0000
  H   H12       1.0  0.40907224591307456  0.21438525259973046  0.9798709346988068  1.0000
  H   H13       1.0  0.31215434448307827  0.6166523654302504  0.34228628913874026  1.0000
  H   H14       1.0  0.6878456554196493  0.1166523655609308  0.1577137109122409  1.0000
  H   H15       1.0  0.6878456559146973  0.38334763430838875  0.6577137107681464  1.0000
  H   H16       1.0  0.31215434405412007  0.8833476346887433  0.8422862889837817  1.0000
  H   H17       1.0  0.16717830067787062  0.7024431378287889  0.3852444601484464  1.0000
  H   H18       1.0  0.832821699224857  0.20244313744843434  0.1147555399025348  1.0000
  H   H19       1.0  0.8328216991694902  0.2975568624208852  0.6147555405902474  1.0000
  H   H20       1.0  0.16717830117291874  0.7975568622902047  0.8852444600043519  1.0000
  H   H21       1.0  0.5647157449768718  0.21180985505745686  0.4347399682675361  1.0000
  H   H22       1.0  0.4352842549258557  0.7118098554378114  0.06526003178344508  1.0000
  H   H23       1.0  0.4352842554209038  0.7881901446811822  0.5652600316393507  1.0000
  H   H24       1.0  0.5647157445479136  0.28819014481186267  0.9347399681125775  1.0000
  H   H25       1.0  0.18554272723050846  0.4682820091883845  0.5289258638236924  1.0000
  H   H26       1.0  0.8144572731119007  0.968282009057704  0.9710741367709069  1.0000
  H   H27       1.0  0.8144572726168524  0.5317179910612895  0.47107413691500133  1.0000
  H   H28       1.0  0.1855427272858751  0.03171799119197  0.028925863135979887  1.0000
  H   H29       1.0  0.05047309272726971  0.561286802187666  0.567781742676639  1.0000
  H   H30       1.0  0.9495269072415476  0.061286801807311476  0.9322182570752892  1.0000
  H   H31       1.0  0.949526907670506  0.4387131980620081  0.43221825723024787  1.0000
  H   H32       1.0  0.05047309315622796  0.9387131979313277  0.06778174283159766  1.0000
  H   H33       1.0  0.4039521085695558  0.5110269934512254  0.36108106391018363  1.0000
  H   H34       1.0  0.5960478913331717  0.011026993581905849  0.13891893614079756  1.0000
  H   H35       1.0  0.5960478912778051  0.4889730062874137  0.6389189368285101  1.0000
  H   H36       1.0  0.4039521090646039  0.9889730066677682  0.8610810637660892  1.0000
  H   H37       1.0  0.2951128674791723  0.393919005972288  0.4632504599272864  1.0000
  H   H38       1.0  0.7048871324235552  0.8939190063526424  0.03674954012369475  1.0000
  H   H39       1.0  0.704887131994597  0.606080993766351  0.5367495399687361  1.0000
  H   H40       1.0  0.29511286797422054  0.10608099389703154  0.963250459783192  1.0000
  H   H41       1.0  0.6769958244411182  0.19365516592456147  0.3102875025424367  1.0000
  H   H42       1.0  0.32300417546160937  0.693655165793881  0.1897124975085445  1.0000
  H   H43       1.0  0.3230041750326511  0.8063448338140776  0.6897124973535858  1.0000
  H   H44       1.0  0.6769958249361662  0.30634483394475803  0.8102875023983422  1.0000
  H   H45       1.0  0.8109550617170358  0.24082484736260945  0.41535472211359437  1.0000
  H   H46       1.0  0.1890449381856917  0.740824847231929  0.0846452779373868  1.0000
  H   H47       1.0  0.18904493868073982  0.7591751523760296  0.5846452777932923  1.0000
  H   H48       1.0  0.8109550612880775  0.2591751525067101  0.9153547219586357  1.0000
  H   H49       1.0  0.7519158870254696  0.26598473798547334  0.2705310966232935  1.0000
  H   H50       1.0  0.24808411287725787  0.7659847378547929  0.22946890342768772  1.0000
  H   H51       1.0  0.248084113372306  0.7340152622642007  0.7294689032835933  1.0000
  H   H52       1.0  0.7519158865965114  0.23401526188384622  0.7705310964683348  1.0000
  H   H53       1.0  0.09373483152296258  0.6244112924022835  0.07117247649007312  1.0000
  H   H54       1.0  0.906265168379765  0.12441129202192895  0.4288275235609081  1.0000
  H   H55       1.0  0.9062651692484048  0.37558870784739057  0.928827524259485  1.0000
  H   H56       1.0  0.0937348310940043  0.8755887077167103  0.5711724763351144  1.0000
  H   H57       1.0  0.9747160016244394  0.7204155811584845  0.1205386040496515  1.0000
  H   H58       1.0  0.025283998278288075  0.2204155812891649  0.37946139600132966  1.0000
  H   H59       1.0  0.02528399784932982  0.2795844190911896  0.8794613958463711  1.0000
  H   H60       1.0  0.9747160021194875  0.7795844189605091  0.620538603905557  1.0000
  H   H61       1.0  0.22834136087278809  0.54151383393599  0.08363737741469163  1.0000
  H   H62       1.0  0.7716586390299394  0.041513833555635454  0.4163626226362896  1.0000
  H   H63       1.0  0.7716586395249877  0.4584861663136841  0.9163626224921952  1.0000
  H   H64       1.0  0.22834136044382983  0.9584861661830035  0.5836373772597329  1.0000
  H   H65       1.0  0.07301576939287538  0.44017219831135723  0.17387276583180186  1.0000
  H   H66       1.0  0.9269842305098521  0.9401721981806768  0.32612723421917933  1.0000
  H   H67       1.0  0.9269842310049002  0.5598278019383167  0.8261272340750849  1.0000
  H   H68       1.0  0.07301576896391715  0.059827802068997245  0.6738727656768432  1.0000
  H   H69       1.0  0.1727734774033123  0.3550208149851405  0.15298473554069536  1.0000
  H   H70       1.0  0.8272265224994152  0.855020815365495  0.3470152645102858  1.0000
  H   H71       1.0  0.8272265220704569  0.6449791847534986  0.8470152643553271  1.0000
  H   H72       1.0  0.17277347827195208  0.14497918488417902  0.6529847362392722  1.0000
  H   H73       1.0  0.3920480919954155  0.4946145983382121  0.027286989068928475  1.0000
  H   H74       1.0  0.6079519088313183  0.9946145982075317  0.472713010992917  1.0000
  H   H75       1.0  0.60795190840236  0.505385401911462  0.9727130108379582  1.0000
  H   H76       1.0  0.3920480915664573  0.005385401531107448  0.5272869889139697  1.0000
  H   H77       1.0  0.9254486545688478  0.4877026811722629  0.2458711873105948  1.0000
  H   H78       1.0  0.07455134533387964  0.9877026815526174  0.2541288127403864  1.0000
  H   H79       1.0  0.07455134582892782  0.5122973185663762  0.754128812596292  1.0000
  H   H80       1.0  0.9254486541398896  0.01229731869705665  0.7458711871556359  1.0000
  H   H81       1.0  0.5194776683948228  0.39443166808090524  0.002572580634934906  1.0000
  H   H82       1.0  0.4805223315079047  0.8944316679502248  0.4974274194160463  1.0000
  H   H83       1.0  0.48052233145253803  0.6055683316577339  0.9974274201037587  1.0000
  H   H84       1.0  0.519477668889871  0.10556833178841432  0.5025725804908404  1.0000
  H   H85       1.0  0.8041630955761168  0.5894106159339956  0.2810337522471918  1.0000
  H   H86       1.0  0.19583690432661063  0.08941061606467605  0.2189662478037894  1.0000
  H   H87       1.0  0.1958369038976524  0.4105893838046435  0.7189662476488307  1.0000
  H   H88       1.0  0.8041630960711651  0.9105893836739631  0.7810337521030973  1.0000
  H   H89       1.0  0.31360191595913156  0.26092131199512997  0.12594667663240666  1.0000
  H   H90       1.0  0.6863980839435959  0.7609213118644496  0.3740533234185745  1.0000
  H   H91       1.0  0.6863980835146377  0.7390786877435092  0.8740533232636158  1.0000
  H   H92       1.0  0.3136019164541797  0.2390786878741896  0.6259466764883123  1.0000
  H   H93       1.0  0.868059627323943  0.7140397713636558  0.33357331400997636  1.0000
  H   H94       1.0  0.13194037257878452  0.21403977149433626  0.16642668604100483  1.0000
  H   H95       1.0  0.1319403725234179  0.2859602283749833  0.6664266867287174  1.0000
  H   H96       1.0  0.8680596278189912  0.7859602282443029  0.833573313865882  1.0000
  H   H97       1.0  0.7217441609364921  0.7083978752470482  0.20683425506537945  1.0000
  H   H98       1.0  0.27825583896623546  0.20839787537772878  0.2931657449856017  1.0000
  H   H99       1.0  0.2782558394612836  0.2916021244915908  0.7931657448415073  1.0000
  H   H100      1.0  0.7217441605075338  0.7916021248719453  0.7068342549104207  1.0000
  H   H101      1.0  0.860435238472172  0.7637059874269035  0.21452461955475088  1.0000
  H   H102      1.0  0.1395647614305556  0.263705987557584  0.28547538049623034  1.0000
  H   H103      1.0  0.13956476100159737  0.23629401282277052  0.7854753803412717  1.0000
  H   H104      1.0  0.8604352389672201  0.73629401269209  0.7145246194106565  1.0000
  C   C1        1.0  0.52557449380615  0.3990639456181116  0.33818056943310604  1.0000
  C   C2        1.0  0.4744255060965776  0.8990639454874312  0.16181943061787524  1.0000
  C   C3        1.0  0.4744255056676193  0.6009360546315624  0.6618194304629166  1.0000
  C   C4        1.0  0.5255744946747898  0.10093605476224295  0.8381805701316828  1.0000
  C   C5        1.0  0.6123958740412835  0.35514110904060164  0.317903511365075  1.0000
  C   C6        1.0  0.38760412548785245  0.8551411089099212  0.18209648784323493  1.0000
  C   C7        1.0  0.3876041263564923  0.6448588912090724  0.6820964885418118  1.0000
  C   C8        1.0  0.6123958739859168  0.14485889133975285  0.8179035120527876  1.0000
  C   C9        1.0  0.462744819682675  0.307289300164383  0.4318484820135367  1.0000
  C   C10       1.0  0.5372551802200526  0.8072893000337026  0.06815151803744456  1.0000
  C   C11       1.0  0.5372551797910943  0.6927107000852911  0.5681515178824859  1.0000
  C   C12       1.0  0.4627448201777232  0.19271069970493654  0.9318484818694424  1.0000
  C   C13       1.0  0.4469481102534786  0.37597789879611787  0.3966218582827561  1.0000
  C   C14       1.0  0.5530518892756573  0.8759778986654374  0.10337814092555381  1.0000
  C   C15       1.0  0.5530518892202907  0.6240221014535562  0.6033781416132664  1.0000
  C   C16       1.0  0.44694811112211835  0.12402210107320166  0.8966218589813331  1.0000
  C   C17       1.0  0.25273327240264326  0.602328344886537  0.39060900067999255  1.0000
  C   C18       1.0  0.7472667275000842  0.10232834501721745  0.1093909993709887  1.0000
  C   C19       1.0  0.7472667279951323  0.3976716553631371  0.6093909992268942  1.0000
  C   C20       1.0  0.252733271973685  0.8976716552324566  0.8906090005250338  1.0000
  C   C21       1.0  0.17281817652276987  0.6497150618556595  0.41522865684744303  1.0000
  C   C22       1.0  0.8271818233799578  0.14971506198634  0.08477134320353816  1.0000
  C   C23       1.0  0.8271818229509994  0.35028493788297954  0.5847713430485795  1.0000
  C   C24       1.0  0.17281817701781807  0.8502849382633341  0.9152286567033487  1.0000
  C   C25       1.0  0.5510168548049854  0.2652047805671962  0.409518266667608  1.0000
  C   C26       1.0  0.4489831450977422  0.7652047809475507  0.09048173338337322  1.0000
  C   C27       1.0  0.4489831455927904  0.7347952191714429  0.5904817332392789  1.0000
  C   C28       1.0  0.5510168543760271  0.23479521930212335  0.9095182665126492  1.0000
  C   C29       1.0  0.2581375727238585  0.5346918533039502  0.4292230042905846  1.0000
  C   C30       1.0  0.7418624271788691  0.03469185343463069  0.07077699576039663  1.0000
  C   C31       1.0  0.7418624276739171  0.46530814694572387  0.5707769956163021  1.0000
  C   C32       1.0  0.25813757229490014  0.9653081468150433  0.9292230041356258  1.0000
  C   C33       1.0  0.18273514724811996  0.5192766264252845  0.4938348032940138  1.0000
  C   C34       1.0  0.8172648526546075  0.01927662655596493  0.006165196756967385  1.0000
  C   C35       1.0  0.8172648522256493  0.4807233733133546  0.5061651966020086  1.0000
  C   C36       1.0  0.18273514681916167  0.9807233731826741  0.993834803139055  1.0000
  C   C37       1.0  0.10771936048643374  0.5708896613923085  0.5156628962675421  1.0000
  C   C38       1.0  0.8922806398559753  0.0708896615229889  0.9843371043270571  1.0000
  C   C39       1.0  0.8922806393609272  0.4291103383463306  0.4843371044711516  1.0000
  C   C40       1.0  0.10771936054180038  0.9291103387266851  0.015662895579829635  1.0000
  C   C41       1.0  0.34325577004166885  0.48699087333388014  0.40184617114380783  1.0000
  C   C42       1.0  0.6567442298610587  0.9869908732031997  0.09815382890717335  1.0000
  C   C43       1.0  0.6567442294321003  0.5130091264047589  0.5981538287522147  1.0000
  C   C44       1.0  0.34325577053671696  0.013009126535439423  0.9018461709997134  1.0000
  C   C45       1.0  0.3546366283052989  0.4190544129095829  0.42295488201932385  1.0000
  C   C46       1.0  0.6453633715974286  0.9190544127789025  0.0770451180316574  1.0000
  C   C47       1.0  0.6453633720924767  0.5809455868290562  0.577045117887563  1.0000
  C   C48       1.0  0.3546366278763406  0.08094558695973664  0.9229548818643651  1.0000
  C   C49       1.0  0.7229402930814082  0.24415697271741557  0.3360633604168229  1.0000
  C   C50       1.0  0.2770597068213193  0.7441569725867352  0.16393663963415828  1.0000
  C   C51       1.0  0.277059706392361  0.7558430275322585  0.6639366394791996  1.0000
  C   C52       1.0  0.7229402935764563  0.25584302715190393  0.8360633602727284  1.0000
  C   C53       1.0  0.02400597160079232  0.5471857037868842  0.15861076668823937  1.0000
  C   C54       1.0  0.975994028301935  0.04718570391756467  0.3413892333627418  1.0000
  C   C55       1.0  0.9759940278729768  0.45281429646278987  0.8413892332077831  1.0000
  C   C56       1.0  0.024005972095840468  0.9528142963321095  0.658610766544145  1.0000
  C   C57       1.0  0.2701515225399896  0.4336155291512112  0.09099169371536377  1.0000
  C   C58       1.0  0.729848477362738  0.9336155290205308  0.40900830633561747  1.0000
  C   C59       1.0  0.7298484778577862  0.5663844705874278  0.9090083061915231  1.0000
  C   C60       1.0  0.27015152211103133  0.06638447071810827  0.590991693560405  1.0000
  C   C61       1.0  0.03393312979885438  0.6140057817382713  0.12047214751060022  1.0000
  C   C62       1.0  0.9660668701038733  0.1140057818689517  0.379527852540381  1.0000
  C   C63       1.0  0.9660668705989212  0.3859942185114028  0.8795278523962865  1.0000
  C   C64       1.0  0.03393312936989613  0.8859942183807223  0.6204721473556415  1.0000
  C   C65       1.0  0.967679029373811  0.6676248538307381  0.14492904020463387  1.0000
  C   C66       1.0  0.032320971452922995  0.16762485396141855  0.35507095985721165  1.0000
  C   C67       1.0  0.032320971023964785  0.332375145907901  0.855070959702253  1.0000
  C   C68       1.0  0.9676790289448526  0.8323751462882555  0.6449290400496752  1.0000
  C   C69       1.0  0.1963697218441553  0.49232756096719626  0.10486859470372162  1.0000
  C   C70       1.0  0.8036302780585721  0.9923275608365159  0.3951314053472595  1.0000
  C   C71       1.0  0.8036302776296139  0.5076724392824777  0.8951314051923008  1.0000
  C   C72       1.0  0.19636972141519704  0.007672438902123232  0.604868594548763  1.0000
  C   C73       1.0  0.09696746640269555  0.48908957336481484  0.14379626133073692  1.0000
  C   C74       1.0  0.903032533500032  0.9890895737451693  0.35620373872024425  1.0000
  C   C75       1.0  0.9030325339950801  0.5109104263738242  0.8562037385761498  1.0000
  C   C76       1.0  0.09696746597373726  0.010910426504504711  0.6437962611757782  1.0000
  C   C77       1.0  0.24800468586508612  0.3660159618895826  0.11830732010667398  1.0000
  C   C78       1.0  0.7519953140376413  0.8660159617589022  0.3816926799443072  1.0000
  C   C79       1.0  0.7519953145326894  0.6339840383600914  0.8816926798002128  1.0000
  C   C80       1.0  0.24800468543612786  0.13398403797973693  0.6183073199517153  1.0000
  C   C81       1.0  0.3705471509867764  0.4433895830277568  0.04900872118777493  1.0000
  C   C82       1.0  0.6294528489159512  0.9433895828970763  0.45099127886320634  1.0000
  C   C83       1.0  0.6294528484869929  0.5566104172219174  0.9509912787082475  1.0000
  C   C84       1.0  0.3705471514818245  0.05661041735259781  0.5490087210436805  1.0000
  C   C85       1.0  0.937706960830491  0.5384153491716446  0.21609379323658234  1.0000
  C   C86       1.0  0.062293039072236454  0.038415349302325076  0.2839062068143988  1.0000
  C   C87       1.0  0.062293038643278245  0.4615846505669945  0.7839062066594402  1.0000
  C   C88       1.0  0.9377069613255391  0.9615846504363139  0.7160937930924879  1.0000
  C   C89       1.0  0.44266691233472377  0.38749739569005065  0.03674962340861229  1.0000
  C   C90       1.0  0.5573330871944121  0.8874973955593702  0.46325037579969763  1.0000
  C   C91       1.0  0.5573330880630518  0.6125026045596235  0.9632503764982744  1.0000
  C   C92       1.0  0.44266691227935717  0.11250260417926888  0.5367496240963249  1.0000
  C   C93       1.0  0.873096106171277  0.5933829587488151  0.23821952281245945  1.0000
  C   C94       1.0  0.12690389373145058  0.09338295836846064  0.26178047723852177  1.0000
  C   C95       1.0  0.12690389422649873  0.40661704150085887  0.7617804770944273  1.0000
  C   C96       1.0  0.8730961057423188  0.9066170413701784  0.7382195226575008  1.0000
  C   C97       1.0  0.3263802499479231  0.3137079474658454  0.10366152705694665  1.0000
  C   C98       1.0  0.6736197499548044  0.8137079473351649  0.3963384729940346  1.0000
  C   C99       1.0  0.6736197495258461  0.6862920527838287  0.8963384728390759  1.0000
  C   C100      1.0  0.32638025044297125  0.18629205240347416  0.6036615269128522  1.0000
  C   C101      1.0  0.8303067461271463  0.7151648077028032  0.2411679207326843  1.0000
  C   C102      1.0  0.16969325340198954  0.21516480783348363  0.2588320784756256  1.0000
  C   C103      1.0  0.16969325334662289  0.2848351920358359  0.7588320791633382  1.0000
  C   C104      1.0  0.8303067469957861  0.7848351924161904  0.7411679214312611  1.0000
  N   N1        1.0  0.624960735669936  0.28913354041321865  0.3532495719463172  1.0000
  N   N2        1.0  0.37503926423279155  0.7891335402825381  0.14675042810466407  1.0000
  N   N3        1.0  0.3750392647278397  0.7108664593254205  0.6467504279605697  1.0000
  N   N4        1.0  0.6249607352409776  0.2108664594561009  0.8532495717913583  1.0000
  N   N5        1.0  0.1004644442931015  0.6353687816505809  0.47671451590319724  1.0000
  N   N6        1.0  0.8995355556096261  0.13536878178126127  0.023285484147783964  1.0000
  N   N7        1.0  0.8995355551806677  0.36463121808805826  0.5232854839928253  1.0000
  N   N8        1.0  0.10046444478814966  0.8646312179573779  0.9767145157591028  1.0000
  N   N9        1.0  0.8905584787883202  0.6575181780218307  0.20508175623074068  1.0000
  N   N10       1.0  0.10944152111440747  0.1575181781525111  0.29491824382024057  1.0000
  N   N11       1.0  0.10944152068544921  0.3424818217168084  0.7949182436652819  1.0000
  N   N12       1.0  0.8905584792833683  0.842481821586128  0.7050817560866462  1.0000
  N   N13       1.0  0.42259908983804834  0.32320657546630627  0.06355606301318831  1.0000
  N   N14       1.0  0.5774009100646792  0.8232065753356259  0.43644393703779294  1.0000
  N   N15       1.0  0.5774009096357209  0.6767934247833678  0.9364439368828341  1.0000
  N   N16       1.0  0.42259909033309645  0.17679342491404823  0.5635560628690939  1.0000
  N   N17       1.0  0.9758094645561431  0.6391934312698478  0.7346696451465407  1.0000
  N   N18       1.0  0.024190535412674404  0.13919343088949326  0.7653303546053876  1.0000
  N   N19       1.0  0.024190535841632638  0.36080656897982627  0.26533035476034617  1.0000
  N   N20       1.0  0.9758094640610948  0.8608065688491457  0.234669645290635  1.0000
  I   I1        1.0  0.4640581841371887  0.39968813753239846  0.7428825481381078  1.0000
  I   I2        1.0  0.5359418158316288  0.8996881374017179  0.7571174516138204  1.0000
  I   I3        1.0  0.5359418153365806  0.6003118622062406  0.2571174517579147  1.0000
  I   I4        1.0  0.4640581845661469  0.10031186233692108  0.2428825482930665  1.0000
  I   I5        1.0  0.14970272968614168  0.648833507107453  0.8649012155558031  1.0000
  I   I6        1.0  0.8502972702826758  0.1488335072381335  0.6350987841961249  1.0000
  I   I7        1.0  0.8502972707116341  0.3511664926311861  0.1350987843510836  1.0000
  I   I8        1.0  0.14970272919109354  0.8511664925005056  0.3649012156998976  1.0000
