data_image0
_chemical_formula_structural       H104C104O34Cl6
_chemical_formula_sum              "H104 C104 O34 Cl6"
_cell_length_a       11.966977497638172
_cell_length_b       8.307377169859867
_cell_length_c       25.06531084938576
_cell_angle_alpha    90.0
_cell_angle_beta     89.29304832288194
_cell_angle_gamma    90.0

_space_group_name_H-M_alt    "P 1"
_space_group_IT_number       1

loop_
  _space_group_symop_operation_xyz
  'x, y, z'

loop_
  _atom_site_type_symbol
  _atom_site_label
  _atom_site_symmetry_multiplicity
  _atom_site_fract_x
  _atom_site_fract_y
  _atom_site_fract_z
  _atom_site_occupancy
  H   H1        1.0  0.7236453393264065  0.019591633637448702  0.8531997768261832  1.0000
  H   H2        1.0  0.27635466031154393  0.5195916342477576  0.14680022310598864  1.0000
  H   H3        1.0  0.3960404954307249  0.2004771597517455  0.07207770293449105  1.0000
  H   H4        1.0  0.6039595042072256  0.7004771603620544  0.9279222969976809  1.0000
  H   H5        1.0  0.28039627371292297  0.08912206763479465  0.09852752638000752  1.0000
  H   H6        1.0  0.7196037259250275  0.5891220682451035  0.9014724735521643  1.0000
  H   H7        1.0  0.2617668114171968  0.2878819176137565  0.07406506402505618  1.0000
  H   H8        1.0  0.7382331882207535  0.7878819182240654  0.9259349359071156  1.0000
  H   H9        1.0  0.3265214124707758  0.9877778006482906  0.008722754429867903  1.0000
  H   H10       1.0  0.6734785879995056  0.4877778012417309  0.9912772458979588  1.0000
  H   H11       1.0  0.12391486620397701  0.01067938390011688  0.04330853265816936  1.0000
  H   H12       1.0  0.8760851334339733  0.5106793845104258  0.9566914672740026  1.0000
  H   H13       1.0  0.13653307029196485  0.9994568622842552  0.9733327050671325  1.0000
  H   H14       1.0  0.8634669293459855  0.4994568616739464  0.0266672948650394  1.0000
  H   H15       1.0  0.7341067181938066  0.9294031018613591  0.7729433667849822  1.0000
  H   H16       1.0  0.2658932814441437  0.4294031024547996  0.22705663314718963  1.0000
  H   H17       1.0  0.676962779729871  0.7467841658265106  0.7473702157991221  1.0000
  H   H18       1.0  0.32303721990807943  0.24678416521620175  0.25262978413304976  1.0000
  H   H19       1.0  0.7186663398706564  0.7546270214797226  0.8157250249270552  1.0000
  H   H20       1.0  0.281333659767294  0.25462702086941374  0.18427497500511658  1.0000
  H   H21       1.0  0.857380928163346  0.23698382290173653  0.9569744471183868  1.0000
  H   H22       1.0  0.1426190714746044  0.7369838235120454  0.04302555281378507  1.0000
  H   H23       1.0  0.826410362416105  0.23123369755852835  0.8871484510722035  1.0000
  H   H24       1.0  0.1735896380575353  0.7312336981688372  0.11285154885664897  1.0000
  H   H25       1.0  0.827073792568842  0.048401526953516495  0.9262248848974923  1.0000
  H   H26       1.0  0.17292620706574957  0.5484015275638254  0.07377511543365381  1.0000
  H   H27       1.0  0.09321513634768559  0.474468583694568  0.9716632693814502  1.0000
  H   H28       1.0  0.9067848641259547  0.9744685831011275  0.02833673054740237  1.0000
  H   H29       1.0  0.21426589896836812  0.6780834461733031  0.9605333319420803  1.0000
  H   H30       1.0  0.785734101505272  0.1780834467667435  0.039466667986772126  1.0000
  H   H31       1.0  0.1828745166046865  0.6025470792587639  0.8953230652175972  1.0000
  H   H32       1.0  0.8171254838689537  0.10254707864845508  0.1046769347112554  1.0000
  H   H33       1.0  0.3124905008422089  0.706120079786741  0.9068394671102875  1.0000
  H   H34       1.0  0.6875094987957414  0.20612008038018143  0.09316053282188429  1.0000
  H   H35       1.0  0.5475908253954795  0.8239565834128924  0.23456906933177082  1.0000
  H   H36       1.0  0.4524091742424708  0.32395658400633287  0.765430930600401  1.0000
  H   H37       1.0  0.5552889416204667  0.07153231854645935  0.1896099243820783  1.0000
  H   H38       1.0  0.44471105801412486  0.5715323191567683  0.8103900759490679  1.0000
  H   H39       1.0  0.5089853019772517  0.08116411187471986  0.1216973705322034  1.0000
  H   H40       1.0  0.4910146976606987  0.5811641112812794  0.8783026293999685  1.0000
  H   H41       1.0  0.555981319158281  0.8941850451850021  0.1488926469842124  1.0000
  H   H42       1.0  0.44401868131535915  0.3941850457784425  0.8511073529446401  1.0000
  H   H43       1.0  0.639365580194131  0.7771518733281378  0.314911832305143  1.0000
  H   H44       1.0  0.36063442027615045  0.27715187392157825  0.6850881680226838  1.0000
  H   H45       1.0  0.6476339866238875  0.6153539059893474  0.26687492499666604  1.0000
  H   H46       1.0  0.352366013014063  0.11535390658278788  0.7331250749355057  1.0000
  H   H47       1.0  0.6628933535826342  0.5762895053530785  0.33727552584208076  1.0000
  H   H48       1.0  0.3371066468910059  0.07628950594651893  0.6627244740867717  1.0000
  H   H49       1.0  0.9580604849209541  0.8922675422626846  0.3024231649886424  1.0000
  H   H50       1.0  0.04193951471699624  0.392267542856125  0.6975768349435294  1.0000
  H   H51       1.0  0.9286326430016183  0.41069171655986714  0.17834671332712163  1.0000
  H   H52       1.0  0.07136735663633215  0.9106917159664266  0.8216532866050502  1.0000
  H   H53       1.0  0.06308509193668357  0.37151109392232645  0.14851008859631096  1.0000
  H   H54       1.0  0.9369149085369566  0.871511093328886  0.8514899113325416  1.0000
  H   H55       1.0  0.9717350057413041  0.5185895333644363  0.1194784101178331  1.0000
  H   H56       1.0  0.02826499389664634  0.018589532754127377  0.8805215898143388  1.0000
  H   H57       1.0  0.8365011713670133  0.6521294903589149  0.1711995286216654  1.0000
  H   H58       1.0  0.16349882910662694  0.1521294909523553  0.8288004713071871  1.0000
  H   H59       1.0  0.08908037159690169  0.17563713674801315  0.2537486831862132  1.0000
  H   H60       1.0  0.9109196288733797  0.6756371361545727  0.7462513171416136  1.0000
  H   H61       1.0  0.14368573570114182  0.052604366103118874  0.30486074810717984  1.0000
  H   H62       1.0  0.8563142647724984  0.5526043667134277  0.6951392518216727  1.0000
  H   H63       1.0  0.02054358296469565  0.16619325351075748  0.3171788162715509  1.0000
  H   H64       1.0  0.9794564166732548  0.666193252917317  0.682821183660621  1.0000
  H   H65       1.0  0.9362846465696741  0.08181369355250602  0.19842864637601415  1.0000
  H   H66       1.0  0.06371535306827633  0.5818136929590656  0.8015713535561576  1.0000
  H   H67       1.0  0.8468642618761976  0.10181844434231557  0.25531605120992257  1.0000
  H   H68       1.0  0.15313573776175288  0.6018184449526245  0.7446839487222492  1.0000
  H   H69       1.0  0.20195358486624643  0.3410335442910665  0.42714760429486043  1.0000
  H   H70       1.0  0.7980464156073936  0.8410335449013754  0.5728523956339922  1.0000
  H   H71       1.0  0.16662333288694006  0.34267774916111343  0.4966815207090722  1.0000
  H   H72       1.0  0.8333766675867  0.842677748567673  0.5033184792197803  1.0000
  H   H73       1.0  0.21391234435068895  0.5246652428173696  0.4649843712395323  1.0000
  H   H74       1.0  0.7860876552872614  0.024665242207060692  0.5350156286926395  1.0000
  H   H75       1.0  0.09509002716730947  0.9107256003073256  0.4531943874435474  1.0000
  H   H76       1.0  0.9049099724706409  0.4107256009007661  0.5468056124886245  1.0000
  H   H77       1.0  0.09334753066202886  0.8683481925164214  0.3828511951749924  1.0000
  H   H78       1.0  0.9066524689759217  0.3683481919061125  0.6171488047571795  1.0000
  H   H79       1.0  0.03924194439394321  0.7238454505011278  0.42927986988650635  1.0000
  H   H80       1.0  0.9607580552440071  0.2238454498908189  0.5707201300456655  1.0000
  H   H81       1.0  0.4670586038216909  0.2611925732555371  0.5574285350380276  1.0000
  H   H82       1.0  0.5329413958162595  0.7611925726620966  0.4425714648941443  1.0000
  H   H83       1.0  0.5992468623382378  0.2061734895357943  0.5850427770830281  1.0000
  H   H84       1.0  0.4007531372997126  0.7061734901461032  0.41495722284914377  1.0000
  H   H85       1.0  0.5077620943891515  0.05252918593647543  0.5605383347219783  1.0000
  H   H86       1.0  0.4922379060844887  0.552529185343035  0.43946166520687424  1.0000
  H   H87       1.0  0.5054845053211593  0.31787399271827504  0.3615856792591906  1.0000
  H   H88       1.0  0.4945154943134323  0.8178739921248346  0.6384143210719555  1.0000
  H   H89       1.0  0.08974888453719292  0.14730504766772762  0.4371140035916544  1.0000
  H   H90       1.0  0.9102511159364473  0.6473050482780365  0.562885996337198  1.0000
  H   H91       1.0  0.21478272795420533  0.03859125370678311  0.3665294599749514  1.0000
  H   H92       1.0  0.7852172716803864  0.538591254317092  0.6334705403561949  1.0000
  H   H93       1.0  0.5675617045941261  0.22506675112616067  0.27410259799031117  1.0000
  H   H94       1.0  0.4324382950404655  0.7250667505327203  0.725897402340835  1.0000
  H   H95       1.0  0.6504889812483036  0.06861569402050097  0.30157102354312054  1.0000
  H   H96       1.0  0.34951101922533656  0.5686156946308099  0.698428976385732  1.0000
  H   H97       1.0  0.6876039126193336  0.274782828963393  0.3108411449243096  1.0000
  H   H98       1.0  0.3123960870186169  0.7747828283699525  0.6891588550078623  1.0000
  H   H99       1.0  0.37784538682569485  0.11175039859369475  0.49367704790077477  1.0000
  H   H100      1.0  0.6221546128088968  0.6117503992040036  0.5063229524303715  1.0000
  H   H101      1.0  0.4908438822197354  0.950171216330262  0.35973838889632526  1.0000
  H   H102      1.0  0.5091561174182149  0.4501712157199531  0.6402616110358466  1.0000
  H   H103      1.0  0.4053482029313618  0.08036546630171383  0.32148748518307474  1.0000
  H   H104      1.0  0.5946517975422783  0.5803654669120227  0.6785125147457779  1.0000
  C   C1        1.0  0.6379555916195339  0.03850395178402567  0.866359341412002  1.0000
  C   C2        1.0  0.3620444080184165  0.5385039511905853  0.13364065852016985  1.0000
  C   C3        1.0  0.41642735115811563  0.08605851466499138  0.8971223331945352  1.0000
  C   C4        1.0  0.5835726484798348  0.5860585152753003  0.1028776667376367  1.0000
  C   C5        1.0  0.551005486495932  0.9655884710643647  0.83788507685446  1.0000
  C   C6        1.0  0.44899451397770823  0.465588470454056  0.16211492307439246  1.0000
  C   C7        1.0  0.501894306724821  0.15901933101013685  0.9264020684345823  1.0000
  C   C8        1.0  0.49810569374881913  0.6590193316204457  0.0735979314942703  1.0000
  C   C9        1.0  0.6143344227668486  0.1341919582084901  0.9109323249921383  1.0000
  C   C10       1.0  0.38566557770679155  0.6341919576150497  0.08906767493671419  1.0000
  C   C11       1.0  0.4505676669676215  0.2475617415640575  0.9699508602324719  1.0000
  C   C12       1.0  0.5494323335060187  0.747561740970617  0.030049139696380626  1.0000
  C   C13       1.0  0.30711857024462325  0.17439111290819578  0.0675642188964156  1.0000
  C   C14       1.0  0.6928814293933272  0.6743911123147553  0.9324357810357563  1.0000
  C   C15       1.0  0.2819240158254628  0.10312978362272335  0.012814995450277642  1.0000
  C   C16       1.0  0.7180759846481775  0.6031297842330322  0.9871850044785748  1.0000
  C   C17       1.0  0.09029145623182785  0.23014104824040996  0.0033475122885898087  1.0000
  C   C18       1.0  0.9097085434027637  0.7301410476469694  0.9966524880425565  1.0000
  C   C19       1.0  0.4379489545200907  0.9902318531829419  0.852758834020574  1.0000
  C   C20       1.0  0.5620510459535495  0.49023185377638234  0.1472411659082784  1.0000
  C   C21       1.0  0.2518833994599424  0.35899560703950884  0.9597914924371794  1.0000
  C   C22       1.0  0.7481166010136976  0.8589956076498176  0.04020850749167306  1.0000
  C   C23       1.0  0.15586404409694074  0.07528488080077744  0.008107217975620506  1.0000
  C   C24       1.0  0.8441359555410096  0.5752848814110862  0.9918927819565514  1.0000
  C   C25       1.0  0.6827441654854892  0.8235441078589435  0.7826813144075794  1.0000
  C   C26       1.0  0.317255834988151  0.323544108452384  0.21731868552127304  1.0000
  C   C27       1.0  0.8078551725835382  0.17788097130841202  0.9262948041951191  1.0000
  C   C28       1.0  0.19214482789010195  0.6778809719187209  0.0737051957337334  1.0000
  C   C29       1.0  0.14299690151765182  0.3654093642231012  0.9764030249776712  1.0000
  C   C30       1.0  0.85700309811694  0.8654093648334101  0.02359697535347497  1.0000
  C   C31       1.0  0.3230895043203099  0.21015928063724235  0.9663896129196677  1.0000
  C   C32       1.0  0.6769104953176406  0.7101592800438019  0.03361038701250417  1.0000
  C   C33       1.0  0.24971607180873728  0.6254648349001889  0.9240333492914381  1.0000
  C   C34       1.0  0.7502839278292129  0.1254648354936293  0.07596665064073371  1.0000
  C   C35       1.0  0.42904740628277305  0.6956036305857866  0.2847966239464069  1.0000
  C   C36       1.0  0.5709525941908671  0.19560363117922697  0.7152033759824455  1.0000
  C   C37       1.0  0.37698639203994244  0.8777623335143458  0.21328647244728363  1.0000
  C   C38       1.0  0.6230136084336977  0.377762332904037  0.786713527481569  1.0000
  C   C39       1.0  0.2627822077664574  0.8494881255185674  0.2258865944602458  1.0000
  C   C40       1.0  0.7372177918714931  0.34948812611200786  0.774113405471926  1.0000
  C   C41       1.0  0.4595810155929626  0.8024101438640283  0.24342627317709492  1.0000
  C   C42       1.0  0.5404189840449879  0.3024101444574687  0.756573726755077  1.0000
  C   C43       1.0  0.5124244506776313  0.0071936651939697675  0.1576229033210233  1.0000
  C   C44       1.0  0.48757554979600887  0.5071936658042787  0.8423770966078291  1.0000
  C   C45       1.0  0.23533113083797186  0.744722267149014  0.26820900925682417  1.0000
  C   C46       1.0  0.7646688687999785  0.24472226774245445  0.7317909906753478  1.0000
  C   C47       1.0  0.31512757053241147  0.6633428911827  0.29719002954722196  1.0000
  C   C48       1.0  0.6848724299412287  0.16334289057239104  0.7028099703816305  1.0000
  C   C49       1.0  0.6209971715997549  0.649830337496409  0.30734785979703255  1.0000
  C   C50       1.0  0.37900282803819546  0.1498303368861  0.6926521401351394  1.0000
  C   C51       1.0  0.1598129815760702  0.904810832144605  0.20295260188465597  1.0000
  C   C52       1.0  0.8401870180618801  0.4048108327380454  0.7970473980475159  1.0000
  C   C53       1.0  0.06475967856315681  0.826417322775271  0.2378665559431728  1.0000
  C   C54       1.0  0.9352403210747936  0.32641732216496216  0.762133443988999  1.0000
  C   C55       1.0  0.9947216653208903  0.7114079846334569  0.20552178285422337  1.0000
  C   C56       1.0  0.005278334317059931  0.21140798402314806  0.7944782170779484  1.0000
  C   C57       1.0  0.9947466366710636  0.9549413368135081  0.26759550735873483  1.0000
  C   C58       1.0  0.005253362966886806  0.45494133620319926  0.7324044925734371  1.0000
  C   C59       1.0  0.00019425840582648518  0.46399246130111854  0.15688743356671345  1.0000
  C   C60       1.0  0.9998057420644548  0.963992460707678  0.8431125667611133  1.0000
  C   C61       1.0  0.8279173588598476  0.8828880945252329  0.21133001376482527  1.0000
  C   C62       1.0  0.1720826416104337  0.3828880939149239  0.7886699865630017  1.0000
  C   C63       1.0  0.8856810453395356  0.738161812641455  0.1937737952867549  1.0000
  C   C64       1.0  0.11431895513074579  0.23816181203114606  0.806226205041072  1.0000
  C   C65       1.0  0.06599096752357389  0.09545999221958729  0.2869861833111642  1.0000
  C   C66       1.0  0.9340090321110178  0.5954599928298963  0.7130138170199819  1.0000
  C   C67       1.0  0.8996689946684476  0.01691081398226316  0.23282687283504402  1.0000
  C   C68       1.0  0.10033100496614404  0.5169108133888227  0.7671731274961023  1.0000
  C   C69       1.0  0.7024455555116654  0.04566157190698477  0.40933287853157796  1.0000
  C   C70       1.0  0.29755444412628507  0.5456615725172936  0.5906671214005939  1.0000
  C   C71       1.0  0.7846792009556587  0.2916930290334796  0.42208661515437856  1.0000
  C   C72       1.0  0.2153207986789329  0.7916930284400391  0.5779133851767675  1.0000
  C   C73       1.0  0.5378815275594367  0.16415955747715305  0.45972760966273724  1.0000
  C   C74       1.0  0.4621184720785136  0.664159558087462  0.5402723902694346  1.0000
  C   C75       1.0  0.6119365293746581  0.18177604424640234  0.4107419070476618  1.0000
  C   C76       1.0  0.3880634710989819  0.681776043652962  0.5892580928811908  1.0000
  C   C77       1.0  0.16611874123867246  0.4136712827326665  0.45981234230027707  1.0000
  C   C78       1.0  0.833881258399278  0.913671282139226  0.5401876576318948  1.0000
  C   C79       1.0  0.04885501510771325  0.8521653267031591  0.42097215190569126  1.0000
  C   C80       1.0  0.9511449845268783  0.3521653260928503  0.579027848425455  1.0000
  C   C81       1.0  0.9767448444026318  0.35051839232299103  0.4375545396639528  1.0000
  C   C82       1.0  0.023255155235318563  0.8505183917295506  0.5624454602682191  1.0000
  C   C83       1.0  0.5376083900428102  0.17674179587355454  0.554794462137415  1.0000
  C   C84       1.0  0.46239160959514014  0.676741795280114  0.4452055377947569  1.0000
  C   C85       1.0  0.5447180952000817  0.19790452827456406  0.35924511037317797  1.0000
  C   C86       1.0  0.45528190527355844  0.6979045288848729  0.6407548895556746  1.0000
  C   C87       1.0  0.8660703670434537  0.4061587479429342  0.43116835153591154  1.0000
  C   C88       1.0  0.1339296334301865  0.9061587473494938  0.568831648392941  1.0000
  C   C89       1.0  0.9195750262888881  0.07353724497022024  0.42220970097499855  1.0000
  C   C90       1.0  0.08042497418139342  0.5735372443767798  0.5777902993528282  1.0000
  C   C91       1.0  0.375187869313141  0.08811467627301045  0.4071040294774458  1.0000
  C   C92       1.0  0.6248121311571404  0.58811467567957  0.592895970850381  1.0000
  C   C93       1.0  0.8076072586128648  0.1263780804137619  0.41747291197284536  1.0000
  C   C94       1.0  0.19239274186077537  0.6263780810240708  0.5825270879560072  1.0000
  C   C95       1.0  0.003099913975393034  0.18580671353170755  0.43290679783425223  1.0000
  C   C96       1.0  0.9969000864982472  0.6858067141420164  0.5670932020946002  1.0000
  C   C97       1.0  0.26684399989578433  0.06990363361698622  0.4000769084915387  1.0000
  C   C98       1.0  0.733156000574497  0.5699036330235457  0.5999230918362881  1.0000
  C   C99       1.0  0.6172182844889357  0.19018457783910286  0.30873809196097485  1.0000
  C   C100      1.0  0.38278171514901477  0.6901845784494118  0.6912619079711971  1.0000
  C   C101      1.0  0.4285322663040613  0.12275491038252713  0.4574968455582352  1.0000
  C   C102      1.0  0.5714677341662201  0.622754910992836  0.5425031547695917  1.0000
  C   C103      1.0  0.4528972641971846  0.07074931690021176  0.3584818746427684  1.0000
  C   C104      1.0  0.5471027362764556  0.5707493175105207  0.641518125286084  1.0000
  O   O1        1.0  0.31197915029283135  0.1162210575322038  0.9164606550710694  1.0000
  O   O2        1.0  0.6880208493451191  0.6162210581425127  0.08353934486110251  1.0000
  O   O3        1.0  0.9932144651695417  0.2400956847410896  0.021900691695610024  1.0000
  O   O4        1.0  0.006785534465049896  0.7400956841476491  0.9780993086355363  1.0000
  O   O5        1.0  0.5694205104388392  0.8695063751537654  0.7950897670293624  1.0000
  O   O6        1.0  0.4305794900348009  0.36950637454345653  0.20491023289949012  1.0000
  O   O7        1.0  0.6931561992069925  0.20456529242052773  0.9411216989592422  1.0000
  O   O8        1.0  0.3068438012666477  0.7045652930308367  0.058878300969610275  1.0000
  O   O9        1.0  0.4926092553356406  0.3333214302639769  0.00429755882862065  1.0000
  O   O10       1.0  0.5073907451379996  0.8333214296705365  0.9957024411002318  1.0000
  O   O11       1.0  0.3080843232727297  0.47796067264235914  0.9354556298770994  1.0000
  O   O12       1.0  0.6919156772009104  0.977960673252668  0.06454437005175302  1.0000
  O   O13       1.0  0.39746288551681325  0.9772165719709269  0.17212521234412165  1.0000
  O   O14       1.0  0.6025371149534682  0.47721657136061796  0.8278747879837051  1.0000
  O   O15       1.0  0.14073219339030152  0.9958653941963193  0.1652423752934753  1.0000
  O   O16       1.0  0.8592678062476489  0.4958653935860104  0.8347576246386965  1.0000
  O   O17       1.0  0.5033796316557613  0.6179832328579106  0.3152929988779795  1.0000
  O   O18       1.0  0.49662036881787885  0.11798323345135095  0.6847070010508729  1.0000
  O   O19       1.0  0.12355749359884784  0.7308366763492471  0.27778684626267075  1.0000
  O   O20       1.0  0.8764425060391026  0.23083667573893815  0.7222131536695011  1.0000
  O   O21       1.0  0.05464749732718567  0.5819459789956244  0.18981701041407553  1.0000
  O   O22       1.0  0.9453525031464545  0.08194597958906485  0.8101829895147771  1.0000
  O   O23       1.0  0.7252016458216579  0.8975123901983338  0.20760833269543752  1.0000
  O   O24       1.0  0.27479835381629264  0.3975123907917743  0.7923916672367343  1.0000
  O   O25       1.0  0.9371931179381775  0.9142072635818592  0.41668032059048665  1.0000
  O   O26       1.0  0.06280688253546268  0.41420726417529974  0.5833196793383659  1.0000
  O   O27       1.0  0.5962691234025675  0.19203372826117995  0.5046490297889829  1.0000
  O   O28       1.0  0.4037308770710726  0.6920337288714888  0.4953509701398696  1.0000
  O   O29       1.0  0.6757309729759075  0.3309665534358276  0.41640002413618227  1.0000
  O   O30       1.0  0.32426902666204277  0.8309665528423871  0.5835999757959897  1.0000
  O   O31       1.0  0.6805282941850596  0.9019072466317773  0.40286639491527426  1.0000
  O   O32       1.0  0.31947170628858057  0.4019072472252178  0.5971336050135783  1.0000
  O   O33       1.0  0.05390201888850061  0.46428096511537836  0.44801621321445406  1.0000
  O   O34       1.0  0.946097980746091  0.9642809657256872  0.5519837871166922  1.0000
  Cl  Cl1       1.0  0.33078748767708827  0.9023528361270311  0.8177298812966164  1.0000
  Cl  Cl2       1.0  0.669212511960862  0.4023528367204715  0.18227011863555537  1.0000
  Cl  Cl3       1.0  0.2766689054367466  0.5254075083813278  0.34510060240934104  1.0000
  Cl  Cl4       1.0  0.7233310950368935  0.02540750777101895  0.6548993975195115  1.0000
  Cl  Cl5       1.0  0.8291395103307588  0.6051252058518005  0.4323630767283592  1.0000
  Cl  Cl6       1.0  0.17086048930383269  0.10512520524149158  0.567636923602787  1.0000
