data_image0
_chemical_formula_structural       H52C36N24O52I16
_chemical_formula_sum              "H52 C36 N24 O52 I16"
_cell_length_a       9.896826714870103
_cell_length_b       20.272464141971877
_cell_length_c       10.296328889541886
_cell_angle_alpha    90.0
_cell_angle_beta     97.9866688051303
_cell_angle_gamma    90.0

_space_group_name_H-M_alt    "P 1"
_space_group_IT_number       1

loop_
  _space_group_symop_operation_xyz
  'x, y, z'

loop_
  _atom_site_type_symbol
  _atom_site_label
  _atom_site_symmetry_multiplicity
  _atom_site_fract_x
  _atom_site_fract_y
  _atom_site_fract_z
  _atom_site_occupancy
  H   H1        1.0  0.014244849562422456  0.6891694981999876  0.02279656189867808  1.0000
  H   H2        1.0  0.9857551501604447  0.189169497755342  0.977203438270856  1.0000
  H   H3        1.0  0.9857551501604447  0.31083050219602365  0.977203438270856  1.0000
  H   H4        1.0  0.014244849562422456  0.8108305021473893  0.02279656189867808  1.0000
  H   H5        1.0  0.014456026735105789  0.6882957992812987  0.2945677951230538  1.0000
  H   H6        1.0  0.9855439739991402  0.18829579883665312  0.705432205053246  1.0000
  H   H7        1.0  0.9855439739991402  0.31170420111471253  0.705432205053246  1.0000
  H   H8        1.0  0.014456026735105789  0.8117042010660782  0.2945677951230538  1.0000
  H   H9        1.0  0.02696874054891556  0.6424013444442213  0.7942640743040865  1.0000
  H   H10       1.0  0.9730312601853304  0.14240134449285563  0.20573592587221334  1.0000
  H   H11       1.0  0.9730312601853304  0.35759865595178997  0.20573592587221334  1.0000
  H   H12       1.0  0.02696874054891556  0.8575986559031556  0.7942640743040865  1.0000
  H   H13       1.0  0.027283651001731548  0.6422894715123411  0.5262938134266404  1.0000
  H   H14       1.0  0.9727163487211354  0.14228947156097535  0.4737061867428935  1.0000
  H   H15       1.0  0.9727163487211354  0.3577105283903903  0.4737061867428935  1.0000
  H   H16       1.0  0.027283651001731548  0.8577105283417559  0.5262938134266404  1.0000
  H   H17       1.0  0.7021669762275226  0.6902998699120557  0.6992681713280451  1.0000
  H   H18       1.0  0.29783302450672344  0.19029986996069007  0.30073182884825483  1.0000
  H   H19       1.0  0.29783302450672344  0.3097001299906756  0.30073182884825483  1.0000
  H   H20       1.0  0.7021669762275226  0.8097001304353212  0.6992681713280451  1.0000
  H   H21       1.0  0.6941407661334091  0.6900828158840311  0.969243436497582  1.0000
  H   H22       1.0  0.305859233589458  0.1900828159326654  0.030756563671952043  1.0000
  H   H23       1.0  0.305859233589458  0.3099171840187002  0.030756563671952043  1.0000
  H   H24       1.0  0.6941407661334091  0.8099171839700658  0.969243436497582  1.0000
  H   H25       1.0  0.693895170095774  0.6421739236448694  0.4663319748238684  1.0000
  H   H26       1.0  0.3061048296270932  0.14217392369350373  0.5336680253456655  1.0000
  H   H27       1.0  0.3061048296270932  0.35782607625786195  0.5336680253456655  1.0000
  H   H28       1.0  0.693895170095774  0.8578260762092275  0.4663319748238684  1.0000
  H   H29       1.0  0.6897519256461616  0.6421027517345433  0.20001937301933975  1.0000
  H   H30       1.0  0.3102480739419135  0.1421027517831777  0.7999806261694848  1.0000
  H   H31       1.0  0.3102480739419135  0.35789724816818796  0.7999806261694848  1.0000
  H   H32       1.0  0.6897519256461616  0.8578972481195536  0.20001937301933975  1.0000
  H   H33       1.0  0.37404158199923543  0.6893209790450637  0.7872494494030438  1.0000
  H   H34       1.0  0.6259584177236316  0.18932097909369802  0.21275055076649013  1.0000
  H   H35       1.0  0.6259584177236316  0.31067902085766763  0.21275055076649013  1.0000
  H   H36       1.0  0.37404158199923543  0.8106790213023132  0.7872494494030438  1.0000
  H   H37       1.0  0.34392027252970414  0.689903330549909  0.05543952433949289  1.0000
  H   H38       1.0  0.656079727193163  0.18990333059854334  0.9445604758300411  1.0000
  H   H39       1.0  0.656079727193163  0.3100966693528223  0.9445604758300411  1.0000
  H   H40       1.0  0.34392027252970414  0.8100966693041879  0.05543952433949289  1.0000
  H   H41       1.0  0.37209432124284986  0.6422594662798374  0.5548353885165224  1.0000
  H   H42       1.0  0.6279056784800173  0.1422594663284718  0.44516461165301163  1.0000
  H   H43       1.0  0.6279056784800173  0.3577405336228939  0.44516461165301163  1.0000
  H   H44       1.0  0.37209432124284986  0.8577405335742595  0.5548353885165224  1.0000
  H   H45       1.0  0.3513618688047861  0.6421633561086044  0.28868363573429145  1.0000
  H   H46       1.0  0.648638130918081  0.1421633561572388  0.7113163644352425  1.0000
  H   H47       1.0  0.648638130918081  0.3578366442874068  0.7113163644352425  1.0000
  H   H48       1.0  0.3513618688047861  0.8578366442387725  0.28868363573429145  1.0000
  H   H49       1.0  0.8282245411475875  0.47650663196883514  0.29512195074224795  1.0000
  H   H50       1.0  0.17177545958665863  0.9765066319202008  0.704878049434052  1.0000
  H   H51       1.0  0.17177545958665863  0.5234933679338962  0.704878049434052  1.0000
  H   H52       1.0  0.8282245411475875  0.023493367982530513  0.29512195074224795  1.0000
  C   C1        1.0  0.028244554237494748  0.6949311973788344  0.8140220896495481  1.0000
  C   C2        1.0  0.9717554454853723  0.19493119742746873  0.18597791051998575  1.0000
  C   C3        1.0  0.9717554454853723  0.30506880252389695  0.18597791051998575  1.0000
  C   C4        1.0  0.028244554237494748  0.8050688029685426  0.8140220896495481  1.0000
  C   C5        1.0  0.03129044704522814  0.7500000001736884  0.7314303373439853  1.0000
  C   C6        1.0  0.9687095526776389  0.25000000022232277  0.26856966282554856  1.0000
  C   C7        1.0  0.030006349801649596  0.7500000001736884  0.590021389707469  1.0000
  C   C8        1.0  0.9699936499212176  0.25000000022232277  0.4099786104620649  1.0000
  C   C9        1.0  0.02638501631364456  0.6949422872985612  0.5065210698730047  1.0000
  C   C10       1.0  0.9736149844206013  0.19494228734719557  0.49347893030329515  1.0000
  C   C11       1.0  0.9736149844206013  0.3050577126041701  0.49347893030329515  1.0000
  C   C12       1.0  0.02638501631364456  0.8050577125555357  0.5065210698730047  1.0000
  C   C13       1.0  0.6913306789812403  0.6949400714850477  0.48618170560210233  1.0000
  C   C14       1.0  0.30866932074162684  0.19494007153368195  0.5138182945674316  1.0000
  C   C15       1.0  0.30866932074162684  0.3050599284176837  0.5138182945674316  1.0000
  C   C16       1.0  0.6913306789812403  0.8050599283690494  0.48618170560210233  1.0000
  C   C17       1.0  0.6887034623363022  0.7500000001736884  0.40337641082218917  1.0000
  C   C18       1.0  0.311296537386565  0.25000000022232277  0.5966235893473448  1.0000
  C   C19       1.0  0.6871561208304088  0.7500000001736884  0.26255570500799436  1.0000
  C   C20       1.0  0.31284387889245835  0.25000000022232277  0.7374442951615395  1.0000
  C   C21       1.0  0.6878837746696848  0.6947483010138916  0.17998041813683013  1.0000
  C   C22       1.0  0.3121162260645612  0.1947483010625259  0.8200195820394698  1.0000
  C   C23       1.0  0.3121162260645612  0.30525169938211966  0.8200195820394698  1.0000
  C   C24       1.0  0.6878837746696848  0.8052516993334854  0.17998041813683013  1.0000
  C   C25       1.0  0.3701885562403381  0.6948271434273647  0.5758960346392257  1.0000
  C   C26       1.0  0.629811443482529  0.19482714347599903  0.42410396553030827  1.0000
  C   C27       1.0  0.629811443482529  0.3051728564753666  0.42410396553030827  1.0000
  C   C28       1.0  0.3701885562403381  0.8051728569200123  0.5758960346392257  1.0000
  C   C29       1.0  0.3649096960114464  0.7500000001736884  0.49267441607626206  1.0000
  C   C30       1.0  0.6350903047227996  0.25000000022232277  0.5073255841000379  1.0000
  C   C31       1.0  0.35503425928998156  0.7500000001736884  0.35090024509737366  1.0000
  C   C32       1.0  0.6449657404328856  0.25000000022232277  0.6490997550721603  1.0000
  C   C33       1.0  0.350016930692727  0.6947799409761334  0.26772592151146585  1.0000
  C   C34       1.0  0.6499830688953481  0.1947799410247677  0.7322740776773589  1.0000
  C   C35       1.0  0.6499830688953481  0.3052200589265979  0.7322740776773589  1.0000
  C   C36       1.0  0.350016930692727  0.8052200593712435  0.26772592151146585  1.0000
  N   N1        1.0  0.023635292678155458  0.7167508250719568  0.9363104208524753  1.0000
  N   N2        1.0  0.9763647080560904  0.21675082512059113  0.06368957932382442  1.0000
  N   N3        1.0  0.9763647080560904  0.28324917483077455  0.06368957932382442  1.0000
  N   N4        1.0  0.023635292678155458  0.7832491747821403  0.9363104208524753  1.0000
  N   N5        1.0  0.02159791824075294  0.7167531281960207  0.38283829662295443  1.0000
  N   N6        1.0  0.9784020814821142  0.216753128244655  0.6171617035465796  1.0000
  N   N7        1.0  0.9784020814821142  0.28324687170671065  0.6171617035465796  1.0000
  N   N8        1.0  0.02159791824075294  0.7832468716580763  0.38283829662295443  1.0000
  N   N9        1.0  0.6969247876837971  0.7168978511058482  0.6093126012870881  1.0000
  N   N10       1.0  0.30307521203907  0.21689785115448254  0.39068739888244586  1.0000
  N   N11       1.0  0.30307521203907  0.2831021487968831  0.39068739888244586  1.0000
  N   N12       1.0  0.6969247876837971  0.7831021487482488  0.6093126012870881  1.0000
  N   N13       1.0  0.6880760668699069  0.7168121580204968  0.05728713076850588  1.0000
  N   N14       1.0  0.31192393285296033  0.2168121580691312  0.942712869401028  1.0000
  N   N15       1.0  0.31192393285296033  0.28318784188223445  0.942712869401028  1.0000
  N   N16       1.0  0.6880760668699069  0.7831878418336001  0.05728713076850588  1.0000
  N   N17       1.0  0.3763788927186706  0.7167819456104163  0.6992042195102877  1.0000
  N   N18       1.0  0.6236211070041965  0.21678194565905068  0.3007957806592463  1.0000
  N   N19       1.0  0.6236211070041965  0.283218054292315  0.3007957806592463  1.0000
  N   N20       1.0  0.3763788927186706  0.7832180542436807  0.6992042195102877  1.0000
  N   N21       1.0  0.3426868490774239  0.7168454785875117  0.14406275644016786  1.0000
  N   N22       1.0  0.6573131506454433  0.2168454786361461  0.8559372437293662  1.0000
  N   N23       1.0  0.6573131506454433  0.28315452131521957  0.8559372437293662  1.0000
  N   N24       1.0  0.3426868490774239  0.7831545212665852  0.14406275644016786  1.0000
  O   O1        1.0  0.3553876306841208  0.6539107371044321  0.9182293410322282  1.0000
  O   O2        1.0  0.6446123700501252  0.15391073715306652  0.08177065914407164  1.0000
  O   O3        1.0  0.6446123700501252  0.3460892627982991  0.08177065914407164  1.0000
  O   O4        1.0  0.3553876306841208  0.8460892627496648  0.9182293410322282  1.0000
  O   O5        1.0  0.301602845417403  0.560541645081666  0.09248382548113644  1.0000
  O   O6        1.0  0.6983971541706722  0.0605416446370204  0.9075161737076882  1.0000
  O   O7        1.0  0.6983971541706722  0.4394583553143453  0.9075161737076882  1.0000
  O   O8        1.0  0.301602845417403  0.9394583552657109  0.09248382548113644  1.0000
  O   O9        1.0  0.5595924039193046  0.5641587865148172  0.01582489170071254  1.0000
  O   O10       1.0  0.44040759566877047  0.06415878656345163  0.9841751074881121  1.0000
  O   O11       1.0  0.44040759566877047  0.4358412133879141  0.9841751074881121  1.0000
  O   O12       1.0  0.5595924039193046  0.9358412133392796  0.01582489170071254  1.0000
  O   O13       1.0  0.9990736789074014  0.649042497638877  0.15844297396195078  1.0000
  O   O14       1.0  0.0009263206806736035  0.1490424971942314  0.8415570252268739  1.0000
  O   O15       1.0  0.0009263206806736035  0.3509575027571343  0.8415570252268739  1.0000
  O   O16       1.0  0.9990736789074014  0.8509575027084998  0.15844297396195078  1.0000
  O   O17       1.0  0.8357139779111994  0.5320096656464448  0.1639055855578383  1.0000
  O   O18       1.0  0.16428602268825457  0.03200966569507918  0.8360944136377523  1.0000
  O   O19       1.0  0.16428602268825457  0.4679903342562865  0.8360944136377523  1.0000
  O   O20       1.0  0.8357139779111994  0.9679903347009321  0.1639055855578383  1.0000
  O   O21       1.0  0.968012124112793  0.5649876729236091  0.9495150092841566  1.0000
  O   O22       1.0  0.03198787561007408  0.06498767297224343  0.05048499088537729  1.0000
  O   O23       1.0  0.03198787561007408  0.43501232697912223  0.05048499088537729  1.0000
  O   O24       1.0  0.968012124112793  0.9350123269304879  0.9495150092841566  1.0000
  O   O25       1.0  0.7124339945490256  0.6562678684164105  0.8347569195101795  1.0000
  O   O26       1.0  0.2875660061852204  0.1562678684650449  0.16524308066612048  1.0000
  O   O27       1.0  0.2875660061852204  0.34373213148632076  0.16524308066612048  1.0000
  O   O28       1.0  0.7124339945490256  0.8437321314376863  0.8347569195101795  1.0000
  O   O29       1.0  0.5191069085194077  0.5623124707567587  0.7381327733629115  1.0000
  O   O30       1.0  0.48089309106866746  0.06231247080539305  0.26186722582591304  1.0000
  O   O31       1.0  0.48089309106866746  0.43768752914597264  0.26186722582591304  1.0000
  O   O32       1.0  0.5191069085194077  0.9376875290973383  0.7381327733629115  1.0000
  O   O33       1.0  0.7914754580395168  0.55479963467855  0.6802103443473312  1.0000
  O   O34       1.0  0.20852454168335038  0.05479963472718428  0.3197896558222027  1.0000
  O   O35       1.0  0.20852454168335038  0.4452003652241814  0.3197896558222027  1.0000
  O   O36       1.0  0.7914754580395168  0.9452003656688269  0.6802103443473312  1.0000
  O   O37       1.0  0.8071312444997254  0.4406909227923297  0.35766799821344225  1.0000
  O   O38       1.0  0.19286875508834966  0.9406909227436953  0.6423320009753823  1.0000
  O   O39       1.0  0.19286875508834966  0.5593090776036816  0.6423320009753823  1.0000
  O   O40       1.0  0.8071312444997254  0.059309077652315925  0.35766799821344225  1.0000
  O   O41       1.0  0.9450169149425547  0.4572208240245242  0.6008209121117504  1.0000
  O   O42       1.0  0.05498308478031244  0.9572208239758899  0.3991790880577836  1.0000
  O   O43       1.0  0.05498308478031244  0.5427791758782071  0.3991790880577836  1.0000
  O   O44       1.0  0.9450169149425547  0.04277917592684146  0.6008209121117504  1.0000
  O   O45       1.0  0.6458692802011083  0.44292513071509654  0.5617299777101777  1.0000
  O   O46       1.0  0.3541307195217588  0.9429251311597421  0.43827002245935615  1.0000
  O   O47       1.0  0.3541307195217588  0.5570748691876348  0.43827002245935615  1.0000
  O   O48       1.0  0.6458692802011083  0.05707486923626914  0.5617299777101777  1.0000
  O   O49       1.0  0.24126609013359973  0.4363490579167242  0.5772575755087826  1.0000
  O   O50       1.0  0.7587339095892675  0.9363490578680898  0.4227424246607513  1.0000
  O   O51       1.0  0.7587339095892675  0.5636509419860072  0.4227424246607513  1.0000
  O   O52       1.0  0.24126609013359973  0.0636509420346415  0.5772575755087826  1.0000
  I   I1        1.0  0.3766192164013202  0.5636958881747693  0.9398375828408757  1.0000
  I   I2        1.0  0.623380783321547  0.06369588822340369  0.06016241732865845  1.0000
  I   I3        1.0  0.623380783321547  0.43630411172796196  0.06016241732865845  1.0000
  I   I4        1.0  0.3766192164013202  0.9363041116793276  0.9398375828408757  1.0000
  I   I5        1.0  0.0033191537838272475  0.5580693338890551  0.1298553162584992  1.0000
  I   I6        1.0  0.9966808468156266  0.058069333937689455  0.8701446829370915  1.0000
  I   I7        1.0  0.9966808468156266  0.4419306660136762  0.8701446829370915  1.0000
  I   I8        1.0  0.0033191537838272475  0.9419306659650418  0.1298553162584992  1.0000
  I   I9        1.0  0.6910685588402254  0.5656214375172974  0.8257043326669747  1.0000
  I   I10       1.0  0.30893144088264174  0.06562143756593186  0.17429566750255931  1.0000
  I   I11       1.0  0.30893144088264174  0.43437856238543376  0.17429566750255931  1.0000
  I   I12       1.0  0.6910685588402254  0.9343785623367994  0.8257043326669747  1.0000
  I   I13       1.0  0.7855148880561551  0.4896905176636505  0.517783753818799  1.0000
  I   I14       1.0  0.21448511267809092  0.989690517615016  0.4822162463575008  1.0000
  I   I15       1.0  0.21448511267809092  0.5103094822390808  0.4822162463575008  1.0000
  I   I16       1.0  0.7855148880561551  0.010309482287715171  0.517783753818799  1.0000
