data_image0
_chemical_formula_structural       H40C28N4O16
_chemical_formula_sum              "H40 C28 N4 O16"
_cell_length_a       8.675050880679972
_cell_length_b       5.364735396036365
_cell_length_c       17.056332673169997
_cell_angle_alpha    90.0
_cell_angle_beta     95.43200070082501
_cell_angle_gamma    90.0

_space_group_name_H-M_alt    "P 1"
_space_group_IT_number       1

loop_
  _space_group_symop_operation_xyz
  'x, y, z'

loop_
  _atom_site_type_symbol
  _atom_site_label
  _atom_site_symmetry_multiplicity
  _atom_site_fract_x
  _atom_site_fract_y
  _atom_site_fract_z
  _atom_site_occupancy
  H   H1        1.0  0.11307558105416185  0.893551440308074  0.8945989392625391  1.0000
  H   H2        1.0  0.386924419022197  0.3935514399386583  0.6054010602918567  1.0000
  H   H3        1.0  0.8869244186913688  0.10644856043075736  0.1054010607550432  1.0000
  H   H4        1.0  0.6130755818812617  0.606448560800173  0.39459893978281474  1.0000
  H   H5        1.0  0.1635995952385151  0.4819916042663425  0.8007010872845921  1.0000
  H   H6        1.0  0.33640040483520134  0.9819916046357581  0.6992989128559675  1.0000
  H   H7        1.0  0.8364004056649436  0.518008394608464  0.1992989127900793  1.0000
  H   H8        1.0  0.6635995949103295  0.01800839423904834  0.30070108716161487  1.0000
  H   H9        1.0  0.11510849388428641  0.2753453247836544  0.7230507617701927  1.0000
  H   H10       1.0  0.3848915061920724  0.7753453251530702  0.7769492377842031  1.0000
  H   H11       1.0  0.8848915058612442  0.724654674091152  0.2769492382473896  1.0000
  H   H12       1.0  0.6151084935534583  0.22465467558576124  0.22305076223337922  1.0000
  H   H13       1.0  0.8886460510702601  0.6293390373911955  0.7956556671062569  1.0000
  H   H14       1.0  0.6113539485493572  0.1293390370217798  0.7043443326270348  1.0000
  H   H15       1.0  0.11135394867527063  0.37066096148361105  0.2043443329113254  1.0000
  H   H16       1.0  0.3886460511961735  0.8706609618530268  0.2956556673905476  1.0000
  H   H17       1.0  0.8330969949636008  0.41322470286938506  0.7210038991207548  1.0000
  H   H18       1.0  0.6669030046560165  0.9132247032388007  0.7789961006125368  1.0000
  H   H19       1.0  0.16690300478192996  0.5867752978694463  0.27899610089682747  1.0000
  H   H20       1.0  0.3330969950895142  0.08677529750003059  0.22100389940504558  1.0000
  H   H21       1.0  0.8732569591402469  0.8636983090393209  0.6753296997020537  1.0000
  H   H22       1.0  0.6267430416372983  0.36369831053393004  0.8246703000883269  1.0000
  H   H23       1.0  0.12674304176321177  0.13630168983548566  0.3246703003726176  1.0000
  H   H24       1.0  0.3732569581082324  0.6363016902049012  0.1753296999292554  1.0000
  H   H25       1.0  0.07283117524875837  0.8251362002440117  0.7013062628814566  1.0000
  H   H26       1.0  0.4271688248276005  0.3251361998745961  0.7986937366729391  1.0000
  H   H27       1.0  0.9271688256547004  0.17486379863079476  0.29869373719321474  1.0000
  H   H28       1.0  0.5728311749205726  0.6748637990002104  0.20130626275847938  1.0000
  H   H29       1.0  0.023518495415483724  0.7041814667674231  0.4957004413750962  1.0000
  H   H30       1.0  0.47648150445596055  0.20418146639800738  0.0042995589267767875  1.0000
  H   H31       1.0  0.9764815043300469  0.2958185339714083  0.5042995586424861  1.0000
  H   H32       1.0  0.5235184952895702  0.7958185324767991  0.9957004410908055  1.0000
  H   H33       1.0  0.27272101110393976  0.5163748079815308  0.9781895919091571  1.0000
  H   H34       1.0  0.22727898781184872  0.016374807612115176  0.5218104081743133  1.0000
  H   H35       1.0  0.7272789886415909  0.48362519089327566  0.02181040810842523  1.0000
  H   H36       1.0  0.7727210119336819  0.9836251912626912  0.4781895918432689  1.0000
  H   H37       1.0  0.16757236164512587  0.18203279153740023  0.0645522872221513  1.0000
  H   H38       1.0  0.33242763822631827  0.6820327919068159  0.4354477130797217  1.0000
  H   H39       1.0  0.8324276392583327  0.8179672073374064  0.93544771285252  1.0000
  H   H40       1.0  0.6675723615192124  0.3179672069679906  0.5645522869378605  1.0000
  C   C1        1.0  0.029402159120141064  0.17200373026445256  0.8313671316589565  1.0000
  C   C2        1.0  0.4705978409535753  0.6720037306338682  0.668632868481603  1.0000
  C   C3        1.0  0.9705978406253895  0.8279962686103539  0.1686328683586258  1.0000
  C   C4        1.0  0.5294021599498834  0.32799627010496313  0.33136713159306835  1.0000
  C   C5        1.0  0.06763486193029362  0.3685605093330119  0.7729245405726198  1.0000
  C   C6        1.0  0.4323651381434228  0.8685605097024275  0.7270754595679396  1.0000
  C   C7        1.0  0.9323651378152371  0.6314394914058195  0.22707545944496244  1.0000
  C   C8        1.0  0.5676348616021079  0.1314394910364038  0.27292454044964265  1.0000
  C   C9        1.0  0.9293065160649038  0.5312107139721234  0.7450634048639972  1.0000
  C   C10       1.0  0.5706934835547134  0.031210715466732594  0.7549365948692943  1.0000
  C   C11       1.0  0.07069348368062683  0.46878928490268307  0.254936595153585  1.0000
  C   C12       1.0  0.42930651619081733  0.9687892852720987  0.24506340514828798  1.0000
  C   C13       1.0  0.965383366341571  0.7224418305632548  0.6834870166850248  1.0000
  C   C14       1.0  0.5346166344333317  0.2224418301938392  0.8165129836915196  1.0000
  C   C15       1.0  0.034616634561887676  0.2775581683115516  0.3165129833896466  1.0000
  C   C16       1.0  0.4653833664701269  0.7775581686809674  0.18348701638315176  1.0000
  C   C17       1.0  0.9805181420465057  0.6159211957483097  0.6031829608577643  1.0000
  C   C18       1.0  0.5194818587283974  0.11592119537889403  0.8968170395187801  1.0000
  C   C19       1.0  0.01948185885695318  0.38407880312649684  0.3968170392169071  1.0000
  C   C20       1.0  0.48051814217506134  0.8840788034959124  0.10318296055589128  1.0000
  C   C21       1.0  0.1507392273723975  0.5094235611357774  0.9882611037455523  1.0000
  C   C22       1.0  0.34926077270131894  0.009423560766361664  0.5117388963950071  1.0000
  C   C23       1.0  0.8492607723731331  0.490576439603054  0.011738896272029913  1.0000
  C   C24       1.0  0.6507392282021397  0.9905764399724697  0.4882611036796643  1.0000
  C   C25       1.0  0.09361631105290645  0.32501559373985955  0.03525965236205171  1.0000
  C   C26       1.0  0.40638368881853776  0.8250155941092753  0.46474034793982133  1.0000
  C   C27       1.0  0.9063836898505523  0.6749844069989718  0.9647403477126196  1.0000
  C   C28       1.0  0.593616310926993  0.17498440662955608  0.5352596520777609  1.0000
  N   N1        1.0  0.057026912930245734  0.6832861771166377  0.9532522626063009  1.0000
  N   N2        1.0  0.44297308714347067  0.18328617861124696  0.5467477375342586  1.0000
  N   N3        1.0  0.942973086815285  0.3167138217581687  0.04674773741128149  1.0000
  N   N4        1.0  0.55702691260206  0.8167138221275844  0.45325226248332356  1.0000
  O   O1        1.0  0.1492365495633564  0.023249985468464008  0.8545946411718488  1.0000
  O   O2        1.0  0.3507634505130024  0.5232499858378796  0.6454053583825469  1.0000
  O   O3        1.0  0.8507634501848167  0.9767500134063426  0.14540535825956977  1.0000
  O   O4        1.0  0.6492365503904562  0.4767500130369268  0.3545946416921244  1.0000
  O   O5        1.0  0.9006963210429968  0.14970750665417457  0.8555607359419217  1.0000
  O   O6        1.0  0.5993036785766204  0.6497075051595654  0.6444392637913698  1.0000
  O   O7        1.0  0.09930367870253384  0.8502924940846567  0.14443926407566066  1.0000
  O   O8        1.0  0.4006963211689103  0.35029249371524107  0.35556073622621237  1.0000
  O   O9        1.0  0.014587739116640238  0.7833423346666609  0.5507258381502658  1.0000
  O   O10       1.0  0.48541225979914826  0.2833423342972452  0.9492741619332047  1.0000
  O   O11       1.0  0.9854122606288904  0.21665766607217046  0.4492741618673165  1.0000
  O   O12       1.0  0.5145877399463825  0.7166576645775613  0.05072583808437767  1.0000
  O   O13       1.0  0.9593317928954272  0.39083601803532214  0.587155150476853  1.0000
  O   O14       1.0  0.5406682067215477  0.8908360184047378  0.9128448498426024  1.0000
  O   O15       1.0  0.040668206850103514  0.6091639827035091  0.41284484954072936  1.0000
  O   O16       1.0  0.459331793023983  0.10916398233409352  0.08715515017497995  1.0000
