data_image0
_chemical_formula_structural       H20C40F8I4
_chemical_formula_sum              "H20 C40 F8 I4"
_cell_length_a       12.84495551458377
_cell_length_b       5.617692723033803
_cell_length_c       12.894502721601835
_cell_angle_alpha    90.0
_cell_angle_beta     100.60949894611223
_cell_angle_gamma    90.0

_space_group_name_H-M_alt    "P 1"
_space_group_IT_number       1

loop_
  _space_group_symop_operation_xyz
  'x, y, z'

loop_
  _atom_site_type_symbol
  _atom_site_label
  _atom_site_symmetry_multiplicity
  _atom_site_fract_x
  _atom_site_fract_y
  _atom_site_fract_z
  _atom_site_occupancy
  H   H1        1.0  0.24987479453275857  0.6849172818270658  0.9257821526144543  1.0000
  H   H2        1.0  0.7501252060358578  0.18491728209708794  0.5742178477320847  1.0000
  H   H3        1.0  0.7501252058030166  0.31508271763288986  0.07421784768763537  1.0000
  H   H4        1.0  0.24987479429991724  0.8150827191429578  0.4257821525700049  1.0000
  H   H5        1.0  0.14070505274740677  0.3156106300955705  0.8917788898853474  1.0000
  H   H6        1.0  0.8592949476738423  0.8156106298255483  0.6082211096721807  1.0000
  H   H7        1.0  0.8592949474410011  0.6843893693643851  0.10822110962773124  1.0000
  H   H8        1.0  0.14070505251456544  0.1843893696344073  0.391778889840898  1.0000
  H   H9        1.0  0.03655318016596936  0.2376576943281072  0.7125456854243724  1.0000
  H   H10       1.0  0.963446820402647  0.737657694058085  0.7874543149221667  1.0000
  H   H11       1.0  0.9634468201698057  0.7623423051318484  0.2874543148777172  1.0000
  H   H12       1.0  0.03655317993312808  0.2623423054018706  0.21254568537992305  1.0000
  H   H13       1.0  0.14955752266767505  0.8964053283570274  0.6017706942870836  1.0000
  H   H14       1.0  0.850442476975348  0.39640532862704964  0.8982293052720038  1.0000
  H   H15       1.0  0.8504424767425067  0.1035946711029282  0.39822930522755445  1.0000
  H   H16       1.0  0.14955752321305973  0.603594670832906  0.10177069424107475  1.0000
  H   H17       1.0  0.2552046022673634  0.9717756914001916  0.7803111417275513  1.0000
  H   H18       1.0  0.744795397523027  0.4717756916702139  0.7196888586205473  1.0000
  H   H19       1.0  0.7447953980684117  0.0282243080597639  0.21968885857453832  1.0000
  H   H20       1.0  0.2552046020345221  0.5282243077897417  0.28031114168310195  1.0000
  C   C1        1.0  0.20422422231627713  0.6494258034159208  0.8474343067840505  1.0000
  C   C2        1.0  0.7957757773267458  0.14942580368594305  0.6525656927750372  1.0000
  C   C3        1.0  0.7957757778721305  0.3505741960440348  0.15256569272902817  1.0000
  C   C4        1.0  0.20422422208343585  0.8505741957740125  0.347434306739601  1.0000
  C   C5        1.0  0.14285618001076508  0.4430005222243668  0.828373940695801  1.0000
  C   C6        1.0  0.8571438197796254  0.9430005219543446  0.6716260596522975  1.0000
  C   C7        1.0  0.857143819546784  0.5569994772355887  0.17162605960784816  1.0000
  C   C8        1.0  0.14285617977792384  0.05699947750561102  0.32837394065135167  1.0000
  C   C9        1.0  0.08431327109647106  0.39806601575608175  0.7282618194483704  1.0000
  C   C10       1.0  0.9156867293247779  0.8980660154860595  0.7717381801091575  1.0000
  C   C11       1.0  0.9156867290919367  0.6019339837038739  0.2717381800647081  1.0000
  C   C12       1.0  0.08431327086362979  0.10193398397389601  0.22826181940392112  1.0000
  C   C13       1.0  0.08604433786105854  0.5615582278228174  0.6455067906967167  1.0000
  C   C14       1.0  0.9139556619293319  0.06155822809283958  0.854493209651382  1.0000
  C   C15       1.0  0.9139556624747166  0.4384417716371382  0.354493209605373  1.0000
  C   C16       1.0  0.08604433762821725  0.938441771367116  0.1455067906522673  1.0000
  C   C17       1.0  0.14867318545084582  0.76927949303467  0.6655523207573761  1.0000
  C   C18       1.0  0.8513268141921772  0.2692794933046923  0.8344476788017114  1.0000
  C   C19       1.0  0.8513268148849292  0.23072050642528547  0.3344476795447135  1.0000
  C   C20       1.0  0.14867318521800452  0.7307205061552632  0.16555232071292678  1.0000
  C   C21       1.0  0.20720102108064312  0.81165798750516  0.7659029074570407  1.0000
  C   C22       1.0  0.7927989785623798  0.31165798777518233  0.7340970921020469  1.0000
  C   C23       1.0  0.7927989791077646  0.18834201195479544  0.2340970920560379  1.0000
  C   C24       1.0  0.20720102084780181  0.6883420134648635  0.2659029074125913  1.0000
  C   C25       1.0  0.0257477988069606  0.5184912905715141  0.5439184395101664  1.0000
  C   C26       1.0  0.9742522009834298  0.018491290841536282  0.9560815608379322  1.0000
  C   C27       1.0  0.9742522015288145  0.4815087106685318  0.45608156079192325  1.0000
  C   C28       1.0  0.025747798574119303  0.9815087103985095  0.043918439465717  1.0000
  C   C29       1.0  0.4718959679508515  0.5510563842887091  0.09648049575375386  1.0000
  C   C30       1.0  0.5281040313738564  0.05105638455873125  0.40351950450544594  1.0000
  C   C31       1.0  0.5281040316066976  0.44894361517124654  0.9035195045498953  1.0000
  C   C32       1.0  0.4718959681836928  0.9489436166813146  0.5964804957982033  1.0000
  C   C33       1.0  0.42523070857279804  0.356209639554534  0.03868937980434255  1.0000
  C   C34       1.0  0.5747692915301357  0.8562096392845118  0.46131062045329774  1.0000
  C   C35       1.0  0.574769291762977  0.6437903599054215  0.9613106204977471  1.0000
  C   C36       1.0  0.42523070802741336  0.14379036017544375  0.5386893798503515  1.0000
  C   C37       1.0  0.45465499785852725  0.30724183487698636  0.9419721368919562  1.0000
  C   C38       1.0  0.545345002710089  0.8072418346069643  0.5580278634545828  1.0000
  C   C39       1.0  0.5453450024772478  0.6927581645829692  0.058027863410133315  1.0000
  C   C40       1.0  0.454654997625686  0.1927581648529914  0.44197213684750697  1.0000
  F   F1        1.0  0.44598242237684244  0.6060258629029173  0.1903577777019387  1.0000
  F   F2        1.0  0.5540175769478654  0.10602586317293951  0.30964222255726115  1.0000
  F   F3        1.0  0.5540175771807067  0.3939741365570383  0.8096422226017105  1.0000
  F   F4        1.0  0.4459824226096837  0.893974136287016  0.6903577777463881  1.0000
  F   F5        1.0  0.412375581968111  0.11859160563702323  0.8839278079972459  1.0000
  F   F6        1.0  0.5876244176749119  0.6185916053670011  0.6160721915618416  1.0000
  F   F7        1.0  0.5876244174420706  0.8814083956030225  0.11607219151739219  1.0000
  F   F8        1.0  0.4123755817352697  0.3814083958730448  0.38392780795279663  1.0000
  I   I1        1.0  0.31288712046165756  0.14739203278331706  0.09363803992687507  1.0000
  I   I2        1.0  0.6871128788630502  0.6473920325132948  0.40636196033232475  1.0000
  I   I3        1.0  0.6871128790958916  0.8526079666766385  0.9063619603767742  1.0000
  I   I4        1.0  0.3128871206944988  0.35260796694666074  0.5936380399713245  1.0000
