data_image0
_chemical_formula_structural       H46C62N6O6
_chemical_formula_sum              "H46 C62 N6 O6"
_cell_length_a       13.142301966726972
_cell_length_b       6.797258085867352
_cell_length_c       13.969231116749546
_cell_angle_alpha    90.0
_cell_angle_beta     108.6931626293328
_cell_angle_gamma    90.0

_space_group_name_H-M_alt    "P 1"
_space_group_IT_number       1

loop_
  _space_group_symop_operation_xyz
  'x, y, z'

loop_
  _atom_site_type_symbol
  _atom_site_label
  _atom_site_symmetry_multiplicity
  _atom_site_fract_x
  _atom_site_fract_y
  _atom_site_fract_z
  _atom_site_occupancy
  H   H1        1.0  0.4182915525406104  0.3548580250344008  0.36952034967466213  1.0000
  H   H2        1.0  0.5817084474351879  0.8548580246028038  0.6304796504770739  1.0000
  H   H3        1.0  0.4158807300553999  0.3496432532025502  0.19711365912586576  1.0000
  H   H4        1.0  0.5841192699182539  0.8496432527709532  0.8028863403093671  1.0000
  H   H5        1.0  0.43216859240285216  0.3217632628290762  0.024935755250025744  1.0000
  H   H6        1.0  0.5678314075708015  0.8217632638686607  0.9750642441852071  1.0000
  H   H7        1.0  0.6082696312446351  0.24858169112529618  0.003764353283561473  1.0000
  H   H8        1.0  0.39173036872901873  0.7485816921648807  0.9962356461516714  1.0000
  H   H9        1.0  0.8011618405540076  0.1724323801147004  0.07624163765772875  1.0000
  H   H10       1.0  0.19883815942179056  0.6724323796831034  0.9237583624940071  1.0000
  H   H11       1.0  0.9619679661667507  0.12319689195575761  0.22433447798748307  1.0000
  H   H12       1.0  0.03803203380690302  0.6231968915241606  0.7756655214477498  1.0000
  H   H13       1.0  0.048913755795886  0.11694508873405055  0.40831868925194303  1.0000
  H   H14       1.0  0.9510862441799122  0.6169450883024535  0.5916813108997929  1.0000
  H   H15       1.0  0.038859175633064826  0.14672851867632664  0.5827176366030014  1.0000
  H   H16       1.0  0.9611408243427335  0.6467285197159112  0.41728236354873466  1.0000
  H   H17       1.0  0.8651013672137015  0.22113784426183014  0.6090186538394943  1.0000
  H   H18       1.0  0.1348986327620968  0.7211378438302332  0.39098134631224163  1.0000
  H   H19       1.0  0.6012263994636456  0.3495542334842526  0.715846234583637  1.0000
  H   H20       1.0  0.3987736005121526  0.8495542330526556  0.28415376556809896  1.0000
  H   H21       1.0  0.4881412737460225  0.3209542410249117  0.8288582821029228  1.0000
  H   H22       1.0  0.5118587262297757  0.8209542420644963  0.17114171804881315  1.0000
  H   H23       1.0  0.20900627420739654  0.21923669679372557  0.5708129989460914  1.0000
  H   H24       1.0  0.7909937257684017  0.7192366978333101  0.4291870012056445  1.0000
  H   H25       1.0  0.3198378189745755  0.24465918595288919  0.4575017109818842  1.0000
  H   H26       1.0  0.6801621810012228  0.7446591855212923  0.5424982891698517  1.0000
  H   H27       1.0  0.31117013336468974  0.6003337858370137  0.3579037137265266  1.0000
  H   H28       1.0  0.6888298666089641  0.10033378479742915  0.6420962857087064  1.0000
  H   H29       1.0  0.15815443206055627  0.4033735552429201  0.32911115693779996  1.0000
  H   H30       1.0  0.8418455679152419  0.9033735548113232  0.6708888432139359  1.0000
  H   H31       1.0  0.9853550501432652  0.5281311309134916  0.23218150442342628  1.0000
  H   H32       1.0  0.014644949832533108  0.0281311313450886  0.7678184957283097  1.0000
  H   H33       1.0  0.8778879904325794  0.7667083468311464  0.10811102564269978  1.0000
  H   H34       1.0  0.12211200954321878  0.2667083472627434  0.8918889745090363  1.0000
  H   H35       1.0  0.9626677440785256  0.9596573850215429  0.0007409908461444891  1.0000
  H   H36       1.0  0.0373322558972726  0.45965738398195827  0.9992590093055915  1.0000
  H   H37       1.0  0.15553333503676042  0.9126967759101016  0.021753604068909763  1.0000
  H   H38       1.0  0.8444666649390378  0.4126967763416985  0.9782463960828262  1.0000
  H   H39       1.0  0.2641077137913956  0.6674859307510103  0.146608047808997  1.0000
  H   H40       1.0  0.7358922861844026  0.16748593118260727  0.8533919523427389  1.0000
  H   H41       1.0  0.22983768085073103  0.24552839820367664  0.15487451076232478  1.0000
  H   H42       1.0  0.7701623191229227  0.7455283992432611  0.845125488672908  1.0000
  H   H43       1.0  0.10977811724538232  0.1801364895274178  0.17853234824436592  1.0000
  H   H44       1.0  0.8902218827304158  0.6801364890958209  0.82146765190737  1.0000
  H   H45       1.0  0.2356742487102142  0.11356283816925293  0.26724279552191804  1.0000
  H   H46       1.0  0.7643257512634396  0.613562837737656  0.7327572039133148  1.0000
  C   C1        1.0  0.5358793286925174  0.29779083925157607  0.5143208166006993  1.0000
  C   C2        1.0  0.46412067128328083  0.7977908388199791  0.48567918355103673  1.0000
  C   C3        1.0  0.6723117364997401  0.2671994908912222  0.45997538017593254  1.0000
  C   C4        1.0  0.32768826347391367  0.7671994919308067  0.5400246192593003  1.0000
  C   C5        1.0  0.5813961563335  0.29449100721391436  0.3748446892111739  1.0000
  C   C6        1.0  0.4186038436422983  0.7944910082534988  0.625155310940562  1.0000
  C   C7        1.0  0.5838079122863646  0.29146035871715786  0.27354163923461805  1.0000
  C   C8        1.0  0.4161920876894336  0.7914603582855608  0.7264583609171178  1.0000
  C   C9        1.0  0.4934123151264808  0.31731212096896255  0.187792496492528  1.0000
  C   C10       1.0  0.5065876848493174  0.8173121205373656  0.812207503659208  1.0000
  C   C11       1.0  0.502687530664182  0.3028532511190238  0.09125449388118229  1.0000
  C   C12       1.0  0.4973124693116162  0.8028532506874269  0.9087455062705536  1.0000
  C   C13       1.0  0.601737251990926  0.26223108898954706  0.07938609097540912  1.0000
  C   C14       1.0  0.39826274798487227  0.7622310885579501  0.9206139091763268  1.0000
  C   C15       1.0  0.6945484236076838  0.236347706634859  0.16353105036461077  1.0000
  C   C16       1.0  0.30545157636811443  0.7363477062032621  0.8364689497871252  1.0000
  C   C17       1.0  0.7963679699648407  0.1895867471443173  0.15226860240831427  1.0000
  C   C18       1.0  0.20363203001095742  0.6895867481839018  0.8477313977434218  1.0000
  C   C19       1.0  0.8856267332268466  0.1631394476995941  0.23427579665742695  1.0000
  C   C20       1.0  0.11437326674895168  0.6631394472679972  0.7657242034943089  1.0000
  C   C21       1.0  0.8813053999947416  0.18129391652233465  0.33502898823688954  1.0000
  C   C22       1.0  0.11869459998105651  0.6812939160907378  0.6649710119148464  1.0000
  C   C23       1.0  0.9728932778826944  0.1529554324502795  0.42011709807286973  1.0000
  C   C24       1.0  0.027106722093103892  0.652955433489864  0.5798829020788663  1.0000
  C   C25       1.0  0.9671635289780433  0.16725726250762615  0.5175991954105268  1.0000
  C   C26       1.0  0.03283647099775503  0.6672572635472106  0.4824008047412091  1.0000
  C   C27       1.0  0.8693861537962093  0.20828094094934563  0.5326441125567977  1.0000
  C   C28       1.0  0.1306138461774445  0.7082809419889301  0.4673558868784351  1.0000
  C   C29       1.0  0.7761169059813832  0.23467494243253442  0.45008569458555253  1.0000
  C   C30       1.0  0.22388309399441503  0.7346749420009375  0.5499143055661834  1.0000
  C   C31       1.0  0.7807339661765956  0.22459049968605113  0.3492529973367645  1.0000
  C   C32       1.0  0.21926603379920265  0.7245905007256357  0.6507470028149714  1.0000
  C   C33       1.0  0.6867615218017995  0.25222108508202035  0.2629748747469527  1.0000
  C   C34       1.0  0.31323847817399864  0.7522210846504234  0.7370251254047832  1.0000
  C   C35       1.0  0.4688548365616553  0.2965115028058877  0.5789675317670259  1.0000
  C   C36       1.0  0.5311451634141429  0.7965115038454721  0.42103246838471015  1.0000
  C   C37       1.0  0.5155935949546196  0.31964025384255507  0.6843604079440878  1.0000
  C   C38       1.0  0.48440640502117854  0.8196402548821395  0.3156395922076482  1.0000
  C   C39       1.0  0.4534760951709242  0.30368990318198197  0.7475089045039904  1.0000
  C   C40       1.0  0.5465239048027295  0.803689902750385  0.25249109493124255  1.0000
  C   C41       1.0  0.3436952914902332  0.2649411773468364  0.7052796328537622  1.0000
  C   C42       1.0  0.656304708485565  0.7649411769152394  0.29472036729797374  1.0000
  C   C43       1.0  0.29472502299808007  0.24778194806253054  0.6010451078009956  1.0000
  C   C44       1.0  0.7052749777809909  0.747781949102115  0.3989548925910381  1.0000
  C   C45       1.0  0.3574240946371807  0.26366227048613117  0.5384223726175829  1.0000
  C   C46       1.0  0.6425759053386175  0.7636622700545342  0.4615776275341531  1.0000
  C   C47       1.0  0.19491096470760752  0.42423556286549896  0.26881682319625766  1.0000
  C   C48       1.0  0.8050890352681908  0.9242355624339019  0.7311831769554783  1.0000
  C   C49       1.0  0.13171728739540914  0.580421567073184  0.1969161127072471  1.0000
  C   C50       1.0  0.8682827125803892  0.08042156750478105  0.8030838874444888  1.0000
  C   C51       1.0  0.023240974620534233  0.6108660871113832  0.18578371361804955  1.0000
  C   C52       1.0  0.976759025355264  0.11086608754298022  0.8142162865336864  1.0000
  C   C53       1.0  0.9622193524258617  0.7456725485439972  0.11508229593348013  1.0000
  C   C54       1.0  0.03778064754993662  0.24567254897559412  0.8849177042182559  1.0000
  C   C55       1.0  0.00968249447845648  0.8533790473633046  0.05556088489173339  1.0000
  C   C56       1.0  0.9903175054973419  0.35337904779490154  0.9444391152600027  1.0000
  C   C57       1.0  0.11850424000196345  0.826165561033486  0.06744517945979468  1.0000
  C   C58       1.0  0.8814957599738348  0.32616555999390157  0.9325548206919413  1.0000
  C   C59       1.0  0.17922362805195843  0.6899946391253632  0.1374201842105514  1.0000
  C   C60       1.0  0.8207763719238398  0.1899946395569601  0.8625798159411846  1.0000
  C   C61       1.0  0.19274427791957574  0.22911618925254854  0.2146502441080783  1.0000
  C   C62       1.0  0.8072557220562224  0.7291161888209515  0.7853497560436576  1.0000
  N   N1        1.0  0.496486001449632  0.31274491760433726  0.4110792183383255  1.0000
  N   N2        1.0  0.5035139985261663  0.8127449171727403  0.5889207818134103  1.0000
  N   N3        1.0  0.6429827787382695  0.26989218841260293  0.5461228136487429  1.0000
  N   N4        1.0  0.3570172212375289  0.7698921879810059  0.453877186502993  1.0000
  N   N5        1.0  0.2788233132946831  0.23597559482623737  0.7713776062490277  1.0000
  N   N6        1.0  0.7211766866811152  0.7359755958658218  0.22862239390270817  1.0000
  O   O1        1.0  0.18217861834788018  0.19465960734241586  0.7318116530733368  1.0000
  O   O2        1.0  0.8178213816257736  0.6946596069108188  0.26818834636189604  1.0000
  O   O3        1.0  0.32318118454367695  0.2519276579420171  0.8641867565614296  1.0000
  O   O4        1.0  0.6768188154321212  0.7519276575104201  0.1358132435903063  1.0000
  O   O5        1.0  0.3052773195910431  0.48077868292137915  0.3132754935766321  1.0000
  O   O6        1.0  0.694722680384755  0.9807786839609636  0.6867245065751039  1.0000
