data_image0
_chemical_formula_structural       H76C88N4O24F4S4Br4
_chemical_formula_sum              "H76 C88 N4 O24 F4 S4 Br4"
_cell_length_a       5.046071744384962
_cell_length_b       26.575600999094966
_cell_length_c       15.748847594582083
_cell_angle_alpha    90.0
_cell_angle_beta     96.96242027592768
_cell_angle_gamma    90.0

_space_group_name_H-M_alt    "P 1"
_space_group_IT_number       1

loop_
  _space_group_symop_operation_xyz
  'x, y, z'

loop_
  _atom_site_type_symbol
  _atom_site_label
  _atom_site_symmetry_multiplicity
  _atom_site_fract_x
  _atom_site_fract_y
  _atom_site_fract_z
  _atom_site_occupancy
  H   H1        1.0  0.5683107196842542  0.2295668346393282  0.575893598067002  1.0000
  H   H2        1.0  0.4316892815437179  0.7295668346563556  0.9241064022639077  1.0000
  H   H3        1.0  0.43168928134545564  0.7704331653947267  0.42410640192001514  1.0000
  H   H4        1.0  0.568310719485992  0.2704331653776993  0.07589359772310939  1.0000
  H   H5        1.0  0.8082587189052506  0.054933121928257285  0.6881614729271988  1.0000
  H   H6        1.0  0.19174128034272628  0.5549331219452848  0.811838527408193  1.0000
  H   H7        1.0  0.19174128014446412  0.9450668781057977  0.3118385270643003  1.0000
  H   H8        1.0  0.8082587187069883  0.44506687808877016  0.18816147258330612  1.0000
  H   H9        1.0  0.4178537116231625  0.15513223502040085  0.302740453016335  1.0000
  H   H10       1.0  0.582146289464172  0.6551322350374283  0.19725954726645803  1.0000
  H   H11       1.0  0.5821462894065474  0.8448677646373691  0.6972595469706822  1.0000
  H   H12       1.0  0.41785371156553786  0.34486776462034163  0.8027404527205592  1.0000
  H   H13       1.0  0.15898968421966145  0.30721078670160784  0.46298404201920185  1.0000
  H   H14       1.0  0.841010314631791  0.8072107863423502  0.03701595762840467  1.0000
  H   H15       1.0  0.8410103148300533  0.6927892133324471  0.5370159579722973  1.0000
  H   H16       1.0  0.15898968441792358  0.19278921331541965  0.9629840423630944  1.0000
  H   H17       1.0  0.6593228471695811  0.3302044872023344  0.5182900069548049  1.0000
  H   H18       1.0  0.340677154058391  0.8302044872193619  0.981709993376105  1.0000
  H   H19       1.0  0.3406771541160156  0.6697955128317206  0.4817099936718808  1.0000
  H   H20       1.0  0.6593228469713189  0.16979551281469307  0.01829000661091225  1.0000
  H   H21       1.0  0.055810490086310026  0.29079491937974156  0.18841245790354974  1.0000
  H   H22       1.0  0.9441895087651423  0.790794919396769  0.31158754174405673  1.0000
  H   H23       1.0  0.9441895089634046  0.7092050806543134  0.8115875420879493  1.0000
  H   H24       1.0  0.055810490284572196  0.20920508063728596  0.6884124582474423  1.0000
  H   H25       1.0  0.40184164460309685  0.3414587139650776  0.27146997894189423  1.0000
  H   H26       1.0  0.5981583562283508  0.841458713982105  0.22853002070123024  1.0000
  H   H27       1.0  0.598158356426613  0.6585412860689773  0.7285300210451228  1.0000
  H   H28       1.0  0.40184164480135903  0.15854128605194986  0.7714699792857869  1.0000
  H   H29       1.0  0.7899040875147612  0.36976604820092873  0.29938963064942253  1.0000
  H   H30       1.0  0.21009591133669125  0.8697660482179561  0.20061036899818388  1.0000
  H   H31       1.0  0.21009591153495333  0.6302339518331262  0.7006103693420764  1.0000
  H   H32       1.0  0.7899040877130235  0.13023395181609876  0.7993896309933152  1.0000
  H   H33       1.0  0.030841022830207433  0.37197139399920426  0.3899751278141649  1.0000
  H   H34       1.0  0.969158976021245  0.8719713936399467  0.11002487183344165  1.0000
  H   H35       1.0  0.9691589762195071  0.6280286060348508  0.6100248721773343  1.0000
  H   H36       1.0  0.030841023028469614  0.12802860601782326  0.8899751281580575  1.0000
  H   H37       1.0  0.3580443516355425  0.37544053435855634  0.6065703134668124  1.0000
  H   H38       1.0  0.6419556495924296  0.8754405343755838  0.8934296868640972  1.0000
  H   H39       1.0  0.6419556493941674  0.6245594656754986  0.3934296865202047  1.0000
  H   H40       1.0  0.3580443514372803  0.1245594656584711  0.10657031312291984  1.0000
  H   H41       1.0  0.18222746418522434  0.13350269369715567  0.4955622440990429  1.0000
  H   H42       1.0  0.8177725346662281  0.6335026937141831  0.004437755548563583  1.0000
  H   H43       1.0  0.8177725348644904  0.8664973063368993  0.5044377558924562  1.0000
  H   H44       1.0  0.18222746438348647  0.36649730631987176  0.9955622444429354  1.0000
  H   H45       1.0  0.5530163062734559  0.4481312174428557  0.329239629642411  1.0000
  H   H46       1.0  0.44698369455799186  0.9481312170835982  0.17076037000071353  1.0000
  H   H47       1.0  0.446983694756254  0.5518687825911993  0.6707603703446061  1.0000
  H   H48       1.0  0.5530163064717181  0.05186878257417181  0.8292396299863036  1.0000
  H   H49       1.0  0.23730367731543248  0.49141654145261837  0.41604848815153633  1.0000
  H   H50       1.0  0.76269632153602  0.9914165414696459  0.08395151149607008  1.0000
  H   H51       1.0  0.7626963217342821  0.5085834585814365  0.5839515118399627  1.0000
  H   H52       1.0  0.23730367751369466  0.008583458564409072  0.916048488495429  1.0000
  H   H53       1.0  0.7877862135500112  0.06102455782863496  0.17985680697981798  1.0000
  H   H54       1.0  0.21221378530144114  0.5610245578456624  0.32014319266778846  1.0000
  H   H55       1.0  0.21221378549970332  0.93897544220542  0.820143193011681  1.0000
  H   H56       1.0  0.7877862137482734  0.4389754421883925  0.6798568073237106  1.0000
  H   H57       1.0  0.694124673203351  0.0898094500320531  0.27512768649023095  1.0000
  H   H58       1.0  0.3058753278839836  0.5898094500490806  0.22487231379256215  1.0000
  H   H59       1.0  0.30587532782635896  0.9101905500020019  0.7248723134967862  1.0000
  H   H60       1.0  0.6941246731457263  0.4101905499849744  0.775127686194455  1.0000
  H   H61       1.0  0.6392275430735445  0.02306995917122924  0.25734300638452035  1.0000
  H   H62       1.0  0.3607724577579033  0.5230699591882567  0.24265699325860424  1.0000
  H   H63       1.0  0.36077245795616547  0.9769300408628256  0.7426569936024968  1.0000
  H   H64       1.0  0.6392275432718066  0.4769300408457982  0.7573430067284129  1.0000
  H   H65       1.0  0.8703555604809083  0.00017976827693050838  0.4029524473252847  1.0000
  H   H66       1.0  0.12964444060642616  0.500179768293958  0.09704755295750839  1.0000
  H   H67       1.0  0.12964444054880156  0.9998202317571244  0.5970475526617326  1.0000
  H   H68       1.0  0.8703555604232838  0.499820231740097  0.9029524470295087  1.0000
  H   H69       1.0  0.9122459379454099  0.06654645101197247  0.42713139972856795  1.0000
  H   H70       1.0  0.0877540628860378  0.5665464510289999  0.07286859991455659  1.0000
  H   H71       1.0  0.08775406308429999  0.9334535490220824  0.5728686002584492  1.0000
  H   H72       1.0  0.9122459381436722  0.433453549005055  0.9271314000724606  1.0000
  H   H73       1.0  0.1933615029896334  0.024968848306482234  0.4480080187241239  1.0000
  H   H74       1.0  0.8066384978418144  0.5249688483235098  0.051991980919000653  1.0000
  H   H75       1.0  0.8066384980400765  0.9750311517275727  0.5519919812628932  1.0000
  H   H76       1.0  0.19336150318789558  0.4750311517105453  0.9480080190680166  1.0000
  C   C1        1.0  0.2533652746752746  0.21342888727871703  0.5022421350997778  1.0000
  C   C2        1.0  0.7466347265526974  0.7134288872957445  0.997757865231132  1.0000
  C   C3        1.0  0.7466347263544353  0.786571112755338  0.49775786488723933  1.0000
  C   C4        1.0  0.2533652744770124  0.28657111273831043  0.0022421347558851893  1.0000
  C   C5        1.0  0.4148763947967735  0.1958095604376817  0.29441943323212755  1.0000
  C   C6        1.0  0.5851236060346742  0.6958095604547091  0.205580566410997  1.0000
  C   C7        1.0  0.5851236062329364  0.8041904392200884  0.7055805667548896  1.0000
  C   C8        1.0  0.4148763949950357  0.3041904395793458  0.7944194335760202  1.0000
  C   C9        1.0  0.009133374853558612  0.28232767229819244  0.4301438274205888  1.0000
  C   C10       1.0  0.9908666242537807  0.7823276723152199  0.06985617286668615  1.0000
  C   C11       1.0  0.990866624196156  0.7176723277358624  0.5698561725709103  1.0000
  C   C12       1.0  0.009133374795933987  0.21767232771883505  0.9301438271248129  1.0000
  C   C13       1.0  0.5748229588245856  0.3662832434281166  0.49641322189066867  1.0000
  C   C14       1.0  0.4251770420068622  0.8662832434451441  0.003586777752455818  1.0000
  C   C15       1.0  0.425177040225129  0.6337167566059383  0.5035867781008304  1.0000
  C   C16       1.0  0.5748229590228477  0.13371675658891094  0.9964132222345613  1.0000
  C   C17       1.0  0.8297088728021136  0.19778605308602437  0.397076693485481  1.0000
  C   C18       1.0  0.17029112630522567  0.6977860531030519  0.10292330680179393  1.0000
  C   C19       1.0  0.17029112624760107  0.8022139469480306  0.6029233065060181  1.0000
  C   C20       1.0  0.8297088727444889  0.3022139469310031  0.8970766931897052  1.0000
  C   C21       1.0  0.21226520195309656  0.2722682873755672  0.23115796711660705  1.0000
  C   C22       1.0  0.7877347988783511  0.7722682873925947  0.26884203252651745  1.0000
  C   C23       1.0  0.7877347990766134  0.7277317126584877  0.7688420328704101  1.0000
  C   C24       1.0  0.21226520215135875  0.22773171264146025  0.7311579674604997  1.0000
  C   C25       1.0  0.6133774604398065  0.27719798435605925  0.33230208191827443  1.0000
  C   C26       1.0  0.38662254039164123  0.7771979843730867  0.1676979177248501  1.0000
  C   C27       1.0  0.38662254058990336  0.7228020156779956  0.6676979180687427  1.0000
  C   C28       1.0  0.6133774606380687  0.22280201566096824  0.8323020822621671  1.0000
  C   C29       1.0  0.6166101347953205  0.2242579785948382  0.341359909793696  1.0000
  C   C30       1.0  0.38338986431201877  0.7242579786118657  0.15864009049357894  1.0000
  C   C31       1.0  0.3833898642543941  0.7757420214392168  0.658640090197803  1.0000
  C   C32       1.0  0.6166101347376959  0.2757420214221893  0.8413599094979203  1.0000
  C   C33       1.0  0.22002533850900477  0.2197806710071734  0.2395801391689947  1.0000
  C   C34       1.0  0.7799746603424477  0.7197806710242008  0.26041986047861176  1.0000
  C   C35       1.0  0.7799746605407099  0.7802193290268815  0.7604198608225045  1.0000
  C   C36       1.0  0.22002533870726695  0.2802193290098541  0.7395801395128874  1.0000
  C   C37       1.0  0.40808253363305796  0.3007307514991729  0.27809143460248675  1.0000
  C   C38       1.0  0.5919174674542765  0.8007307515162003  0.22190856568030623  1.0000
  C   C39       1.0  0.591917467396652  0.699269248534882  0.7219085653845303  1.0000
  C   C40       1.0  0.4080825335754333  0.19926924851785457  0.7780914343067109  1.0000
  C   C41       1.0  0.8256611561229185  0.36020459181058584  0.36762995473903853  1.0000
  C   C42       1.0  0.17433884496441618  0.8602045918276133  0.13237004554375448  1.0000
  C   C43       1.0  0.17433884490679152  0.6397954082234691  0.6323700452479786  1.0000
  C   C44       1.0  0.8256611560652938  0.13979540820644165  0.8676299544432626  1.0000
  C   C45       1.0  0.5427137581655  0.1521781968406933  0.5797915277306589  1.0000
  C   C46       1.0  0.4572862430624721  0.6521781968577207  0.920208472600251  1.0000
  C   C47       1.0  0.45728624286420994  0.8478218031933616  0.4202084722563583  1.0000
  C   C48       1.0  0.5427137579672379  0.3478218031763342  0.07979152738676623  1.0000
  C   C49       1.0  0.026416497075177212  0.23087848700802482  0.44386155527773746  1.0000
  C   C50       1.0  0.9735835037562706  0.7308784870250524  0.05613844436538707  1.0000
  C   C51       1.0  0.9735835039545326  0.7691215130260302  0.5561384447092798  1.0000
  C   C52       1.0  0.0264164952934441  0.2691215130090026  0.9438615556261121  1.0000
  C   C53       1.0  0.6308820102443603  0.3864211165102051  0.41846878494876916  1.0000
  C   C54       1.0  0.36911798886297886  0.8864211165272325  0.08153121533850581  1.0000
  C   C55       1.0  0.36911798906124105  0.6135788835238498  0.5815312156823984  1.0000
  C   C56       1.0  0.6308820101867357  0.11357888350682238  0.9184687846529933  1.0000
  C   C57       1.0  0.4048054516930848  0.3909706072255465  0.5461727473299559  1.0000
  C   C58       1.0  0.595194547554892  0.890970607242574  0.9538272530054358  1.0000
  C   C59       1.0  0.5951945473566298  0.6090293928085084  0.4538272526615432  1.0000
  C   C60       1.0  0.4048054514948226  0.10902939279148098  0.04617274698606322  1.0000
  C   C61       1.0  0.5993826573795399  0.09716071482590115  0.6035896046311514  1.0000
  C   C62       1.0  0.4006173418684369  0.5971607148429287  0.8964103957042402  1.0000
  C   C63       1.0  0.4006173416701747  0.9028392852081538  0.3964103953603476  1.0000
  C   C64       1.0  0.5993826571812777  0.40283928519112633  0.10358960428725886  1.0000
  C   C65       1.0  0.311690596482611  0.16319116584222096  0.523208561259463  1.0000
  C   C66       1.0  0.688309402509479  0.6631911658592484  0.9767914384362603  1.0000
  C   C67       1.0  0.6883094025671036  0.8368088341918339  0.476791438732036  1.0000
  C   C68       1.0  0.3116905965402356  0.3368088341748065  0.023208561555238923  1.0000
  C   C69       1.0  0.5097951500018421  0.43169225412402507  0.3895410129447542  1.0000
  C   C70       1.0  0.49020484910549716  0.9316922541410525  0.1104589873425208  1.0000
  C   C71       1.0  0.4902048490478725  0.5683077459100299  0.610458987046745  1.0000
  C   C72       1.0  0.5097951499442175  0.0683077458930024  0.8895410126489782  1.0000
  C   C73       1.0  0.2887826689150016  0.4357828972670984  0.515589247866434  1.0000
  C   C74       1.0  0.7112173303329752  0.9357828972841258  0.9844107524689577  1.0000
  C   C75       1.0  0.711217330134713  0.5642171027669566  0.48441075212506507  1.0000
  C   C76       1.0  0.28878266871673947  0.0642171027499291  0.015589247522541375  1.0000
  C   C77       1.0  0.3359677141091233  0.45664967202108736  0.4379021202091214  1.0000
  C   C78       1.0  0.6640322869782113  0.9566496720381149  0.062097880073671625  1.0000
  C   C79       1.0  0.6640322869205866  0.5433503280129676  0.5620978797778958  1.0000
  C   C80       1.0  0.3359677120715034  0.04335032799594009  0.9379021199178275  1.0000
  C   C81       1.0  0.7683159199538385  0.05532728121746232  0.2477172453443576  1.0000
  C   C82       1.0  0.23168407915350067  0.5553272812344898  0.25228275494291735  1.0000
  C   C83       1.0  0.23168407909587607  0.9446727188165926  0.7522827546471414  1.0000
  C   C84       1.0  0.768315919896214  0.44467271879956516  0.7477172450485816  1.0000
  C   C85       1.0  0.007692265555916218  0.03238187350981476  0.40614906786320665  1.0000
  C   C86       1.0  0.992307733551423  0.5323818735268423  0.09385093242406832  1.0000
  C   C87       1.0  0.9923077334937983  0.9676181261479552  0.5938509321282924  1.0000
  C   C88       1.0  0.007692265498291593  0.46761812650721274  0.9061490675674307  1.0000
  N   N1        1.0  0.8181397127354674  0.3052084568200818  0.3769246885895997  1.0000
  N   N2        1.0  0.1818602883518672  0.8052084568371094  0.12307531169319336  1.0000
  N   N3        1.0  0.18186028829424256  0.6947915432139732  0.6230753113974175  1.0000
  N   N4        1.0  0.8181397129337294  0.19479154319694567  0.8769246889334923  1.0000
  O   O1        1.0  0.41672303384077874  0.24932336018386358  0.5367034495382208  1.0000
  O   O2        1.0  0.5832769651513112  0.7493233602008911  0.9632965501575024  1.0000
  O   O3        1.0  0.5832769652089358  0.7506766398501914  0.46329655045327833  1.0000
  O   O4        1.0  0.41672303389840337  0.2506766398331639  0.03670344983399662  1.0000
  O   O5        1.0  0.7030195562992609  0.18593978665499536  0.6132151691423595  1.0000
  O   O6        1.0  0.2969804449287112  0.6859397866720229  0.8867848311885501  1.0000
  O   O7        1.0  0.29698044473044904  0.8140602133790596  0.38678483084465753  1.0000
  O   O8        1.0  0.7030195561009988  0.31406021336203216  0.11321516879846699  1.0000
  O   O9        1.0  0.8340107140797656  0.15080531537693104  0.4006687923656792  1.0000
  O   O10       1.0  0.165989286751682  0.6508053153939586  0.09933120727744535  1.0000
  O   O11       1.0  0.16598928694994414  0.849194684657124  0.5993312076213378  1.0000
  O   O12       1.0  0.8340107142780279  0.34919468464009645  0.9006687927095718  1.0000
  O   O13       1.0  0.7925983198667377  0.09226052536247435  0.6684236062860569  1.0000
  O   O14       1.0  0.20740168110534757  0.5922605253795019  0.8315763934051844  1.0000
  O   O15       1.0  0.2074016811629721  0.9077394746715807  0.33157639370096026  1.0000
  O   O16       1.0  0.7925983199243625  0.4077394746545531  0.1684236065818328  1.0000
  O   O17       1.0  0.4738706940084127  0.062324783927046684  0.5664630480898895  1.0000
  O   O18       1.0  0.5261293069636724  0.5623247839440741  0.9335369516013517  1.0000
  O   O19       1.0  0.5261293070212971  0.9376752161070083  0.4335369518971277  1.0000
  O   O20       1.0  0.4738706940660374  0.4376752160899808  0.06646304838566536  1.0000
  O   O21       1.0  0.19243546471815337  0.9950482361960713  0.26706340023282904  1.0000
  O   O22       1.0  0.8075645343891857  0.49504823617904387  0.23293660005444597  1.0000
  O   O23       1.0  0.8075645343315613  0.004951763837983627  0.7329365997586701  1.0000
  O   O24       1.0  0.19243546466052874  0.5049517638550112  0.7670633999370531  1.0000
  F   F1        1.0  0.1211136749104225  0.4597684722319584  0.5641972408863495  1.0000
  F   F2        1.0  0.8788863260616627  0.9597684722489859  0.9358027588048918  1.0000
  F   F3        1.0  0.8788863261192873  0.5402315278020966  0.43580275910066757  1.0000
  F   F4        1.0  0.12111367496804717  0.040231527785069124  0.06419724118212544  1.0000
  S   S1        1.0  0.09780213353280982  0.044996969590291626  0.3016406767580235  1.0000
  S   S2        1.0  0.9021978672986378  0.5449969696073191  0.19835932288510105  1.0000
  S   S3        1.0  0.9021978674969001  0.9550030304437633  0.6983593232289936  1.0000
  S   S4        1.0  0.097802133731072  0.45500303042673584  0.8016406771019161  1.0000
  Br  Br1       1.0  0.958709182775339  0.18095985901367853  0.17128772112403678  1.0000
  Br  Br2       1.0  0.04129081607611334  0.680959859030706  0.32871227852356966  1.0000
  Br  Br3       1.0  0.04129081627437548  0.8190401410203765  0.8287122788674622  1.0000
  Br  Br4       1.0  0.9587091829736013  0.31904014100334893  0.6712877214679294  1.0000
