data_image0
_chemical_formula_structural       H52B2C46N10O2S2
_chemical_formula_sum              "H52 B2 C46 N10 O2 S2"
_cell_length_a       9.856027002908741
_cell_length_b       11.005694950137498
_cell_length_c       11.16342016990492
_cell_angle_alpha    74.82366825031558
_cell_angle_beta     91.83564553328495
_cell_angle_gamma    74.06892491873484

_space_group_name_H-M_alt    "P 1"
_space_group_IT_number       1

loop_
  _space_group_symop_operation_xyz
  'x, y, z'

loop_
  _atom_site_type_symbol
  _atom_site_label
  _atom_site_symmetry_multiplicity
  _atom_site_fract_x
  _atom_site_fract_y
  _atom_site_fract_z
  _atom_site_occupancy
  H   H1        1.0  0.4152828520985922  0.7257718927830422  0.16926697041087685  1.0000
  H   H2        1.0  0.584717148375185  0.2742281072740288  0.8307330302286289  1.0000
  H   H3        1.0  0.585355088762674  0.6183628050709613  0.1442222254740519  1.0000
  H   H4        1.0  0.4146449106949915  0.3816371949902275  0.8557777751135247  1.0000
  H   H5        1.0  0.7165156460475399  0.7269391722573003  0.26145187889333127  1.0000
  H   H6        1.0  0.28348435371129976  0.2730608268615438  0.7385481216859684  1.0000
  H   H7        1.0  0.5469680656097962  0.8338329066295871  0.285709481902167  1.0000
  H   H8        1.0  0.4530319348639811  0.1661670934274841  0.7142905187373387  1.0000
  H   H9        1.0  0.3074950751881608  0.3399315198314104  0.3493384806021707  1.0000
  H   H10       1.0  0.6925049242695045  0.6600684802297785  0.6506615199854058  1.0000
  H   H11       1.0  0.2323284222198759  0.7234688642786232  0.8033472508440856  1.0000
  H   H12       1.0  0.7676715772377894  0.27653113578256555  0.19665274974349087  1.0000
  H   H13       1.0  0.06343378235390852  0.07240261150120135  0.33621013226588403  1.0000
  H   H14       1.0  0.9365662170386164  0.9275973888458023  0.6637898673891508  1.0000
  H   H15       1.0  0.06578792270750639  0.6084195078475845  0.7463730526689173  1.0000
  H   H16       1.0  0.9342120777011305  0.39158049249530147  0.2536269470380468  1.0000
  H   H17       1.0  0.47428619946291534  0.12021405267124828  0.4239947645249951  1.0000
  H   H18       1.0  0.5257138009457215  0.8797859476716375  0.5760052351819689  1.0000
  H   H19       1.0  0.9110915275178365  0.15765125340915837  0.48527150775408634  1.0000
  H   H20       1.0  0.0889084729559407  0.8423487466479128  0.5147284928854194  1.0000
  H   H21       1.0  0.4004848838723483  0.4103966243648365  0.14533899635106703  1.0000
  H   H22       1.0  0.5995151165362885  0.5896033759780492  0.8546610033558971  1.0000
  H   H23       1.0  0.4703300871645261  0.11784611336865311  0.038517206177019016  1.0000
  H   H24       1.0  0.5296699122279989  0.8821538869783504  0.961482793478016  1.0000
  H   H25       1.0  0.1584848507733389  0.42056425499776956  0.5023342069570106  1.0000
  H   H26       1.0  0.8415151496352979  0.5794357453451161  0.49766579274995354  1.0000
  H   H27       1.0  0.39380010822682193  0.628300240932633  0.9987666447447219  1.0000
  H   H28       1.0  0.6061998921818148  0.37169975941025285  0.001233354962242122  1.0000
  H   H29       1.0  0.954434849415858  0.3330135513187968  0.5659879420620345  1.0000
  H   H30       1.0  0.04556515099277885  0.6669864490240891  0.4340120576449295  1.0000
  H   H31       1.0  0.735663780408282  0.039434167878353736  0.4505456734353178  1.0000
  H   H32       1.0  0.2643362192854175  0.9605658315263049  0.5494543262114403  1.0000
  H   H33       1.0  0.7311775677463783  0.039070030145090424  0.06366537090361259  1.0000
  H   H34       1.0  0.26882243201246153  0.9609299689737536  0.9363346296756871  1.0000
  H   H35       1.0  0.8670665738330176  0.9931764886615065  0.2736090126074237  1.0000
  H   H36       1.0  0.13293342555950732  0.006823511685497045  0.7263909870476112  1.0000
  H   H37       1.0  0.2882262907713529  0.9488865607125277  0.2625900404148908  1.0000
  H   H38       1.0  0.7117737086863124  0.05111343934866107  0.7374099601726858  1.0000
  H   H39       1.0  0.9770337419965746  0.9590709333699196  0.11110520556114101  1.0000
  H   H40       1.0  0.022966257395950422  0.04092906697708401  0.8888947940938939  1.0000
  H   H41       1.0  0.19627093806322732  0.8084911326459145  0.3016789447897273  1.0000
  H   H42       1.0  0.8037290613944381  0.19150886741527445  0.6983210557978492  1.0000
  H   H43       1.0  0.9384419565938469  0.466674723113808  0.7428577123128881  1.0000
  H   H44       1.0  0.061558043814789964  0.533325277229078  0.2571422873940759  1.0000
  H   H45       1.0  0.9950823203798195  0.29188684548441773  0.768322379801694  1.0000
  H   H46       1.0  0.004917679313880109  0.7081131539202411  0.23167761984506396  1.0000
  H   H47       1.0  0.8543212521629981  0.3664549795947707  0.8471819930939216  1.0000
  H   H48       1.0  0.14567874831077893  0.6335450204623004  0.15281800754558417  1.0000
  H   H49       1.0  0.34491035140733056  0.7172688144246193  0.38184169501925763  1.0000
  H   H50       1.0  0.6550896490013062  0.28273118591826674  0.6181583046877064  1.0000
  H   H51       1.0  0.9667689682715437  0.1542137585637735  0.9904884142695004  1.0000
  H   H52       1.0  0.03323103243826778  0.8457862408367675  0.00951158542918682  1.0000
  B   B1        1.0  0.27998165948429055  0.1585892953120002  0.21424534840482734  1.0000
  B   B2        1.0  0.7200183402094089  0.8414107040926586  0.7857546512419307  1.0000
  C   C1        1.0  0.5274590156265752  0.6762036607832242  0.20196404401459828  1.0000
  C   C2        1.0  0.4725409837659497  0.3237963395637794  0.7980359556404367  1.0000
  C   C3        1.0  0.6041058287837132  0.7399723707360458  0.27085924220329277  1.0000
  C   C4        1.0  0.3958941709751268  0.26002762838279825  0.7291407583760068  1.0000
  C   C5        1.0  0.10381417707717092  0.25782648655564117  0.017689640313764365  1.0000
  C   C6        1.0  0.8961858226165286  0.7421735128490176  0.9823103593329937  1.0000
  C   C7        1.0  0.13877827865385214  0.4468895243854621  0.9167957306868836  1.0000
  C   C8        1.0  0.8612217208038133  0.5531104756757268  0.08320426990069298  1.0000
  C   C9        1.0  0.1960185877049438  0.2015460327366831  0.3267686515730838  1.0000
  C   C10       1.0  0.8039814130048676  0.7984539666638579  0.6732313481256034  1.0000
  C   C11       1.0  0.23317285241641703  0.3894281372066789  0.028405085632394463  1.0000
  C   C12       1.0  0.7668271469761079  0.6105718631403247  0.9715949140226404  1.0000
  C   C13       1.0  0.22078731782138994  0.2986202741096439  0.37800487176920633  1.0000
  C   C14       1.0  0.7792126829535618  0.7013797250050823  0.6219951288620226  1.0000
  C   C15       1.0  0.23037076670012377  0.6296871545661319  0.8659269948568097  1.0000
  C   C16       1.0  0.7696292329935756  0.37031284483852694  0.13407300478994835  1.0000
  C   C17       1.0  0.08504460764828278  0.15009158675866704  0.3704241912746724  1.0000
  C   C18       1.0  0.9149553918093827  0.8499084133025218  0.629575809312904  1.0000
  C   C19       1.0  0.45081776801096  0.12658332836692865  0.22919772470873942  1.0000
  C   C20       1.0  0.5491822323976768  0.8734166719759571  0.7708022749982246  1.0000
  C   C21       1.0  0.13656625996500796  0.5658652643053477  0.8331392147902933  1.0000
  C   C22       1.0  0.8634337394275171  0.43413473604165603  0.1668607848647417  1.0000
  C   C23       1.0  0.5297333411415417  0.10387943799238683  0.3439693688083067  1.0000
  C   C24       1.0  0.47026665825098324  0.8961205623546167  0.6560306308467283  1.0000
  C   C25       1.0  0.999243257481762  0.1959134120053776  0.45579019630729256  1.0000
  C   C26       1.0  0.0007567432931895751  0.8040865871093489  0.5442098043239363  1.0000
  C   C27       1.0  0.32659796779219885  0.4537677502098151  0.06041206517685203  1.0000
  C   C28       1.0  0.6734020326164377  0.5462322501330709  0.939587934530112  1.0000
  C   C29       1.0  0.5277084423287691  0.10299109936851106  0.12912558739744545  1.0000
  C   C30       1.0  0.4722915570637558  0.8970089009784926  0.8708744122575894  1.0000
  C   C31       1.0  0.13663758967419296  0.3449203938544062  0.4646056573641205  1.0000
  C   C32       1.0  0.8633624100846471  0.6550796052644379  0.5353943432151791  1.0000
  C   C33       1.0  0.32225962480081183  0.5751505635242093  0.9775605773344065  1.0000
  C   C34       1.0  0.6777403749580282  0.4248494355946347  0.022439423244893158  1.0000
  C   C35       1.0  0.024125532159104724  0.2948976305857111  0.502090274825743  1.0000
  C   C36       1.0  0.9758744686158469  0.7051023685290153  0.497909725805486  1.0000
  C   C37       1.0  0.6780107065270818  0.057542758093573794  0.3597340937740347  1.0000
  C   C38       1.0  0.3219892941827295  0.9424572413069672  0.6402659059246525  1.0000
  C   C39       1.0  0.6758596751075956  0.0568935702331622  0.14359813580591252  1.0000
  C   C40       1.0  0.3241403242849294  0.9431064301138414  0.8564018638491224  1.0000
  C   C41       1.0  0.7515982591438689  0.03231688941279421  0.2599791577275903  1.0000
  C   C42       1.0  0.24840174126476797  0.9676831109300916  0.7400208419793738  1.0000
  C   C43       1.0  0.1259426910824707  0.03445527366385614  0.13468220576583648  1.0000
  C   C44       1.0  0.874057309692481  0.9655447254508703  0.8653177948653923  1.0000
  C   C45       1.0  0.9558680111513944  0.37132816701950694  0.8120868485078266  1.0000
  C   C46       1.0  0.04413198830627074  0.628671833041682  0.18791315207974985  1.0000
  N   N1        1.0  0.058714721014687374  0.360812482175247  0.9131656044073457  1.0000
  N   N2        1.0  0.9412852793939495  0.6391875181676389  0.08683439529961827  1.0000
  N   N3        1.0  0.20967979537335477  0.26979228927005133  0.08793031683649388  1.0000
  N   N4        1.0  0.7903202050352819  0.7302077110728344  0.9120696828704703  1.0000
  N   N5        1.0  0.2463070648577106  0.03515184741531567  0.19235559706211747  1.0000
  N   N6        1.0  0.7536929349011293  0.9648481517035284  0.8076444035171823  1.0000
  N   N7        1.0  0.04913830772691663  0.15512998188249127  0.048367352760272604  1.0000
  N   N8        1.0  0.9508616919667829  0.8448700175221674  0.9516326468864855  1.0000
  N   N9        1.0  0.07954292167079371  0.9302774942977339  0.15152670861806683  1.0000
  N   N10       1.0  0.9204570777217311  0.06972250604926976  0.848473291036968  1.0000
  O   O1        1.0  0.26252397895159124  0.7944286337376797  0.37599974509755707  1.0000
  O   O2        1.0  0.73747602175822  0.20557136566286133  0.6240002546011302  1.0000
  S   S1        1.0  0.5665582728138735  0.5949077796415903  0.36901411138352996  1.0000
  S   S2        1.0  0.4334417265786514  0.40509222070541334  0.6309858882715049  1.0000
