data_image0
_chemical_formula_structural       H80C80N4F32Cl4I16
_chemical_formula_sum              "H80 C80 N4 F32 Cl4 I16"
_cell_length_a       7.919517215146034
_cell_length_b       16.5183289618996
_cell_length_c       20.877675462621013
_cell_angle_alpha    90.0
_cell_angle_beta     97.88098437577685
_cell_angle_gamma    90.0

_space_group_name_H-M_alt    "P 1"
_space_group_IT_number       1

loop_
  _space_group_symop_operation_xyz
  'x, y, z'

loop_
  _atom_site_type_symbol
  _atom_site_label
  _atom_site_symmetry_multiplicity
  _atom_site_fract_x
  _atom_site_fract_y
  _atom_site_fract_z
  _atom_site_occupancy
  H   H1        1.0  0.9602234660136094  0.07653544089817022  0.681147812151835  1.0000
  H   H2        1.0  0.03977653317979047  0.07653544089817022  0.8188521874867102  1.0000
  H   H3        1.0  0.4602234661456729  0.5765354414460586  0.6811478124345102  1.0000
  H   H4        1.0  0.5397765332224375  0.5765354414460586  0.8188521876875825  1.0000
  H   H5        1.0  0.03977653383975635  0.9234645589868303  0.31885218757993733  1.0000
  H   H6        1.0  0.9602234666735754  0.9234645589868303  0.18114781224506205  1.0000
  H   H7        1.0  0.5397765338824035  0.4234645590443301  0.31885218778080965  1.0000
  H   H8        1.0  0.46022346680563875  0.4234645590443301  0.18114781252773732  1.0000
  H   H9        1.0  0.16215298961553437  0.07708469500377174  0.7288338352082188  1.0000
  H   H10       1.0  0.837847009752576  0.07708469500377174  0.7711661649138739  1.0000
  H   H11       1.0  0.6621529907461848  0.577084694946272  0.728833834925573  1.0000
  H   H12       1.0  0.3378470097099289  0.577084694946272  0.7711661647130016  1.0000
  H   H13       1.0  0.837847010412542  0.9229153048812289  0.27116616500710106  1.0000
  H   H14       1.0  0.1621529902755003  0.9229153048812289  0.22883383530144594  1.0000
  H   H15       1.0  0.33784701036989484  0.42291530493872853  0.2711661648062287  1.0000
  H   H16       1.0  0.6621529901434369  0.42291530493872853  0.22883383501877064  1.0000
  H   H17       1.0  0.18661712430761185  0.04133884496276994  0.6160945954884934  1.0000
  H   H18       1.0  0.8133828763232124  0.04133884496276994  0.8839054046336287  1.0000
  H   H19       1.0  0.6866171243502589  0.5413388449052703  0.6160945956893658  1.0000
  H   H20       1.0  0.3133828762805654  0.5413388449052703  0.8839054044327564  1.0000
  H   H21       1.0  0.813382875545754  0.9586611549222307  0.3839054042432788  1.0000
  H   H22       1.0  0.18661712370486389  0.9586611549222307  0.11609459558169115  1.0000
  H   H23       1.0  0.31338287567781736  0.45866115497973037  0.38390540452595406  1.0000
  H   H24       1.0  0.686617123747511  0.45866115497973037  0.1160945957825635  1.0000
  H   H25       1.0  0.050570793193776206  0.9567791346481638  0.6177805114823937  1.0000
  H   H26       1.0  0.9494292061743342  0.9567791346481638  0.8822194886396989  1.0000
  H   H27       1.0  0.5505707930617127  0.45677913470566356  0.6177805111997184  1.0000
  H   H28       1.0  0.4494292061316871  0.45677913470566356  0.8822194884388266  1.0000
  H   H29       1.0  0.9494292068343002  0.04322086523683675  0.3822194887329261  1.0000
  H   H30       1.0  0.0505707938537421  0.04322086523683675  0.11778051157562089  1.0000
  H   H31       1.0  0.44942920679165305  0.5432208657847252  0.38221948853205373  1.0000
  H   H32       1.0  0.5505707937216787  0.5432208657847252  0.11778051129294562  1.0000
  H   H33       1.0  0.2548763538644633  0.9578650017501795  0.6660177845192267  1.0000
  H   H34       1.0  0.7451236465916504  0.9578650017501795  0.8339822151193478  1.0000
  H   H35       1.0  0.7548763539071104  0.45786500180767925  0.6660177847200991  1.0000
  H   H36       1.0  0.24512364672371384  0.45786500180767925  0.833982215402023  1.0000
  H   H37       1.0  0.7451236459889025  0.04213499874020916  0.3339822152125455  1.0000
  H   H38       1.0  0.25487635326171537  0.04213499874020916  0.16601778461242442  1.0000
  H   H39       1.0  0.2451236461209659  0.5421349986827094  0.3339822154952207  1.0000
  H   H40       1.0  0.7548763533043625  0.5421349986827094  0.1660177848132968  1.0000
  H   H41       1.0  0.9184425873943337  0.8906349657966947  0.6834347738599598  1.0000
  H   H42       1.0  0.0815574117990662  0.8906349657966947  0.8165652257785854  1.0000
  H   H43       1.0  0.4184425875263972  0.3906349652488063  0.683434774142635  1.0000
  H   H44       1.0  0.5815574118417134  0.3906349652488063  0.8165652259794578  1.0000
  H   H45       1.0  0.08155741245903206  0.109365034693694  0.3165652258718125  1.0000
  H   H46       1.0  0.9184425880542997  0.109365034693694  0.18343477395318686  1.0000
  H   H47       1.0  0.5815574125016791  0.6093650346361943  0.3165652260726849  1.0000
  H   H48       1.0  0.41844258818636304  0.6093650346361943  0.1834347742358621  1.0000
  H   H49       1.0  0.8287786147182862  0.886691639558899  0.7557193680908988  1.0000
  H   H50       1.0  0.17122138591253816  0.886691639558899  0.7442806320312234  1.0000
  H   H51       1.0  0.32877861467563907  0.3866916396163987  0.7557193678900265  1.0000
  H   H52       1.0  0.6712213859551853  0.3866916396163987  0.7442806322320957  1.0000
  H   H53       1.0  0.17122138530979014  0.11330836032610163  0.24428063212442108  1.0000
  H   H54       1.0  0.8287786141155382  0.11330836032610163  0.25571936818409646  1.0000
  H   H55       1.0  0.6712213851777267  0.6133083602686019  0.2442806318417458  1.0000
  H   H56       1.0  0.32877861407289105  0.6133083602686019  0.2557193679832241  1.0000
  H   H57       1.0  0.6117198300250094  0.9242093038111026  0.66435382910561  1.0000
  H   H58       1.0  0.388280169343101  0.9242093038111026  0.8356461710164826  1.0000
  H   H59       1.0  0.11171982998236227  0.4242093038686023  0.6643538289047377  1.0000
  H   H60       1.0  0.8882801693857482  0.4242093038686023  0.835646171217355  1.0000
  H   H61       1.0  0.38828017000306697  0.07579069607389803  0.3356461711097099  1.0000
  H   H62       1.0  0.6117198305102647  0.07579069607389803  0.16435382871528953  1.0000
  H   H63       1.0  0.888280170045714  0.5757906960163984  0.33564617131058216  1.0000
  H   H64       1.0  0.11171983064232814  0.5757906960163984  0.1643538289979648  1.0000
  H   H65       1.0  0.7280947355936193  0.009990714580188484  0.6453633467410206  1.0000
  H   H66       1.0  0.27190526377449115  0.009990714580188484  0.854636653381072  1.0000
  H   H67       1.0  0.2280947355509722  0.5099907145226888  0.6453633465401484  1.0000
  H   H68       1.0  0.7719052638171383  0.5099907145226888  0.8546366535819444  1.0000
  H   H69       1.0  0.27190526443445706  0.9900092853048121  0.3546366534742992  1.0000
  H   H70       1.0  0.7280947362535852  0.9900092853048121  0.14536334683424781  1.0000
  H   H71       1.0  0.7719052643023936  0.4900092853623118  0.35463665319162385  1.0000
  H   H72       1.0  0.2280947362109381  0.4900092853623118  0.1453633466333755  1.0000
  H   H73       1.0  0.6376025327834546  0.007449778381568714  0.7184053418636424  1.0000
  H   H74       1.0  0.362397466584656  0.007449778381568714  0.7815946582584504  1.0000
  H   H75       1.0  0.13760253291551794  0.507449778324069  0.7184053421463175  1.0000
  H   H76       1.0  0.8623974664525924  0.507449778324069  0.7815946579757751  1.0000
  H   H77       1.0  0.3623974670699112  0.9925502215034319  0.2815946578681299  1.0000
  H   H78       1.0  0.6376025334434203  0.9925502215034319  0.21840534195686942  1.0000
  H   H79       1.0  0.8623974671125584  0.49255022156093164  0.2815946580690023  1.0000
  H   H80       1.0  0.1376025334007733  0.49255022156093164  0.2184053417559971  1.0000
  C   C1        1.0  0.025703387756577687  0.29605355852155263  0.5803294558864837  1.0000
  C   C2        1.0  0.9742966128742466  0.29605355852155263  0.9196705442356385  1.0000
  C   C3        1.0  0.5257033877992248  0.7960535584640529  0.580329456087356  1.0000
  C   C4        1.0  0.4742966128315995  0.7960535584640529  0.9196705440347661  1.0000
  C   C5        1.0  0.9742966122714988  0.703946441363448  0.4196705443288362  1.0000
  C   C6        1.0  0.025703387153829707  0.703946441363448  0.08032945597968139  1.0000
  C   C7        1.0  0.47429661222885156  0.20394644142094767  0.41967054412796384  1.0000
  C   C8        1.0  0.5257033870217662  0.20394644142094767  0.08032945569700611  1.0000
  C   C9        1.0  0.850590312610184  0.2971161466344595  0.585525649287392  1.0000
  C   C10       1.0  0.14940968675792643  0.2971161466344595  0.9144743508347009  1.0000
  C   C11       1.0  0.3505903125675369  0.7971161465769597  0.5855256490865196  1.0000
  C   C12       1.0  0.6494096868005735  0.7971161465769597  0.9144743510355731  1.0000
  C   C13       1.0  0.1494096874178923  0.7028838532505411  0.41447435092792784  1.0000
  C   C14       1.0  0.8505903130954394  0.7028838532505411  0.08552564889707154  1.0000
  C   C15       1.0  0.6494096874605394  0.2028838533080408  0.41447435112880016  1.0000
  C   C16       1.0  0.35059031322750284  0.2028838533080408  0.08552564917974681  1.0000
  C   C17       1.0  0.742111265751158  0.343563706903399  0.5416169471265024  1.0000
  C   C18       1.0  0.25788873487966635  0.343563706903399  0.9583830529956197  1.0000
  C   C19       1.0  0.24211126570851085  0.8435637068458992  0.5416169469256301  1.0000
  C   C20       1.0  0.7578887349223136  0.8435637068458992  0.9583830531964922  1.0000
  C   C21       1.0  0.25788873427691833  0.6564362935869897  0.45838305308881744  1.0000
  C   C22       1.0  0.7421112649736995  0.6564362935869897  0.04161694673615252  1.0000
  C   C23       1.0  0.7578887341448549  0.15643629303910134  0.4583830528061421  1.0000
  C   C24       1.0  0.2421112651057629  0.15643629303910134  0.041616947018827795  1.0000
  C   C25       1.0  0.8029490761657891  0.3903150497166608  0.4942636181579738  1.0000
  C   C26       1.0  0.19705092308482866  0.3903150497166608  0.005736381666996093  1.0000
  C   C27       1.0  0.3029490762978526  0.8903150496591611  0.49426361844064914  1.0000
  C   C28       1.0  0.6970509231274757  0.8903150496591611  0.0057363818678684425  1.0000
  C   C29       1.0  0.19705092368757662  0.6096849501683397  0.5057363815737984  1.0000
  C   C30       1.0  0.8029490767685371  0.6096849501683397  0.9942636180647763  1.0000
  C   C31       1.0  0.6970509237302237  0.10968495022583948  0.5057363817746707  1.0000
  C   C32       1.0  0.3029490769006006  0.10968495022583948  0.9942636183474514  1.0000
  C   C33       1.0  0.9761502888155104  0.3894291404922015  0.48922762692531624  1.0000
  C   C34       1.0  0.023849711872531893  0.3894291404922015  0.010772373383230657  1.0000
  C   C35       1.0  0.47615028877286325  0.8894291404347019  0.489227626724444  1.0000
  C   C36       1.0  0.5238497117404683  0.8894291404347019  0.010772373100555383  1.0000
  C   C37       1.0  0.023849711212566  0.6105708593927991  0.5107723732900035  1.0000
  C   C38       1.0  0.9761502881555444  0.6105708593927991  0.9892276268320892  1.0000
  C   C39       1.0  0.5238497112552131  0.11057085945029876  0.5107723734908758  1.0000
  C   C40       1.0  0.4761502881128974  0.11057085945029876  0.989227626631217  1.0000
  C   C41       1.0  0.0850348697582359  0.3421823395718347  0.5319335801333653  1.0000
  C   C42       1.0  0.9149651296098745  0.3421823395718347  0.9680664199887274  1.0000
  C   C43       1.0  0.5850348696261725  0.842182339514335  0.53193357985069  1.0000
  C   C44       1.0  0.41496512956722736  0.842182339514335  0.9680664197878549  1.0000
  C   C45       1.0  0.9149651302698405  0.6578176603131659  0.4680664200819546  1.0000
  C   C46       1.0  0.0850348702434912  0.6578176603131659  0.03193357974304479  1.0000
  C   C47       1.0  0.41496513022719334  0.15781766037066558  0.4680664198810822  1.0000
  C   C48       1.0  0.5850348702861383  0.15781766037066558  0.031933579943917136  1.0000
  C   C49       1.0  0.06734299916615574  0.03787972085089433  0.7009528855804747  1.0000
  C   C50       1.0  0.9326570000272442  0.03787972085089433  0.7990471140580704  1.0000
  C   C51       1.0  0.5673429992088028  0.5378797207933946  0.700952885781347  1.0000
  C   C52       1.0  0.4326570001593075  0.5378797207933946  0.7990471143407456  1.0000
  C   C53       1.0  0.9326570006872101  0.9621202790341064  0.29904711415129753  1.0000
  C   C54       1.0  0.06734299982612162  0.9621202790341064  0.20095288567370184  1.0000
  C   C55       1.0  0.43265700081927355  0.46212027909160597  0.2990471144339728  1.0000
  C   C56       1.0  0.5673429998687687  0.46212027909160597  0.20095288587457413  1.0000
  C   C57       1.0  0.1434980209779582  0.9947784995626047  0.6476607020092431  1.0000
  C   C58       1.0  0.8565019796528662  0.9947784995626047  0.852339298112879  1.0000
  C   C59       1.0  0.6434980210206054  0.49477849962010445  0.6476607022101155  1.0000
  C   C60       1.0  0.356501979610219  0.49477849962010445  0.8523392979120067  1.0000
  C   C61       1.0  0.8565019788754076  0.005221500322395883  0.35233929772252914  1.0000
  C   C62       1.0  0.14349802037521017  0.005221500322395883  0.14766070210244078  1.0000
  C   C63       1.0  0.35650197900747105  0.5052215002648961  0.3523392980052044  1.0000
  C   C64       1.0  0.6434980204178573  0.5052215002648961  0.14766070230331313  1.0000
  C   C65       1.0  0.8596847031034808  0.9278628894818568  0.7177884857822421  1.0000
  C   C66       1.0  0.14031529626462974  0.9278628894818568  0.7822115143398506  1.0000
  C   C67       1.0  0.3596847030608336  0.4278628895393564  0.7177884855813698  1.0000
  C   C68       1.0  0.6403152963072769  0.4278628895393564  0.7822115145407228  1.0000
  C   C69       1.0  0.14031529692459557  0.07213711040314386  0.2822115144330777  1.0000
  C   C70       1.0  0.859684703588736  0.07213711040314386  0.21778848539192167  1.0000
  C   C71       1.0  0.6403152969672428  0.5721371103456442  0.28221151463395006  1.0000
  C   C72       1.0  0.3596847037207996  0.5721371103456442  0.21778848567459697  1.0000
  C   C73       1.0  0.7018434905330597  0.9708190971973374  0.6851488914706918  1.0000
  C   C74       1.0  0.2981565088350508  0.9708190971973374  0.8148511086514009  1.0000
  C   C75       1.0  0.2018434904904125  0.4708190972548371  0.6851488912698194  1.0000
  C   C76       1.0  0.798156508877698  0.4708190972548371  0.8148511088522731  1.0000
  C   C77       1.0  0.2981565094950167  0.02918090268766315  0.314851108744628  1.0000
  C   C78       1.0  0.7018434910183149  0.02918090268766315  0.18514889108037136  1.0000
  C   C79       1.0  0.7981565095376638  0.5291809026301635  0.3148511089455004  1.0000
  C   C80       1.0  0.20184349115037845  0.5291809026301635  0.18514889136304663  1.0000
  N   N1        1.0  3.601203797180514e-10  0.9828887763071227  0.7500000001019625  1.0000
  N   N2        1.0  0.5000000002280569  0.48288877636462235  0.7499999998192873  1.0000
  N   N3        1.0  0.9999999997573723  0.017111223577877914  0.2500000001951602  1.0000
  N   N4        1.0  0.4999999996253089  0.5171112235203782  0.24999999991248495  1.0000
  F   F1        1.0  0.572198587896385  0.34518880591080564  0.5434814625466486  1.0000
  F   F2        1.0  0.42780141273443933  0.34518880591080564  0.9565185375754736  1.0000
  F   F3        1.0  0.07219858802844849  0.8451888058533059  0.543481462829324  1.0000
  F   F4        1.0  0.9278014126023758  0.8451888058533059  0.9565185372927982  1.0000
  F   F5        1.0  0.4278014119569808  0.654811193974195  0.4565185371851236  1.0000
  F   F6        1.0  0.572198587293637  0.654811193974195  0.04348146263984633  1.0000
  F   F7        1.0  0.9278014119996278  0.15481119403169463  0.45651853738599596  1.0000
  F   F8        1.0  0.0721985872509899  0.15481119403169463  0.043481462438973974  1.0000
  F   F9        1.0  0.6949630493009268  0.43654386994183836  0.45397053734103265  1.0000
  F   F10       1.0  0.3050369512124049  0.43654386994183836  0.04602946248396673  1.0000
  F   F11       1.0  0.1949630492582796  0.9365438698843387  0.45397053714016034  1.0000
  F   F12       1.0  0.8050369512550521  0.9365438698843387  0.04602946268483908  1.0000
  F   F13       1.0  0.3050369507271496  0.5634561299431622  0.5460294628742871  1.0000
  F   F14       1.0  0.6949630499036746  0.5634561299431622  0.9539705372478349  1.0000
  F   F15       1.0  0.8050369505950862  0.06345613000066193  0.546029462591612  1.0000
  F   F16       1.0  0.19496304877302426  0.06345613000066193  0.9539705375304808  1.0000
  F   F17       1.0  0.037943458299845106  0.4346380651795884  0.44383585920160395  1.0000
  F   F18       1.0  0.9620565409507726  0.4346380651795884  0.05616414062336602  1.0000
  F   F19       1.0  0.5379434583424922  0.9346380651220887  0.4438358594024763  1.0000
  F   F20       1.0  0.4620565409081256  0.9346380651220887  0.056164140422493666  1.0000
  F   F21       1.0  0.9620565415535207  0.5653619347054122  0.5561641405301684  1.0000
  F   F22       1.0  0.03794345907730365  0.5653619347054122  0.9438358595919538  1.0000
  F   F23       1.0  0.462056541685584  0.06536193476291191  0.5561641408128435  1.0000
  F   F24       1.0  0.5379434589452403  0.06536193476291191  0.9438358593092787  1.0000
  F   F25       1.0  0.25215022946322774  0.3439542300619387  0.5253711660028563  1.0000
  F   F26       1.0  0.7478497699048827  0.3439542300619387  0.9746288341192364  1.0000
  F   F27       1.0  0.7521502293311643  0.8439542306098271  0.525371165720181  1.0000
  F   F28       1.0  0.24784977003694608  0.8439542306098271  0.9746288344019115  1.0000
  F   F29       1.0  0.7478497705648485  0.6560457698230618  0.4746288342124635  1.0000
  F   F30       1.0  0.2521502299484831  0.6560457698230618  0.025371165612535843  1.0000
  F   F31       1.0  0.24784977052220147  0.15604576988056154  0.47462883401159117  1.0000
  F   F32       1.0  0.7521502299911302  0.15604576988056154  0.025371165813408186  1.0000
  Cl  Cl1       1.0  0.5000000002280569  0.15452992042280136  0.7499999998192873  1.0000
  Cl  Cl2       1.0  3.601203797180514e-10  0.6545299203653017  0.7500000001019625  1.0000
  Cl  Cl3       1.0  0.4999999996253089  0.8454700794621992  0.24999999991248495  1.0000
  Cl  Cl4       1.0  0.9999999997573723  0.34547007951969894  0.2500000001951602  1.0000
  I   I1        1.0  0.20992452257555763  0.23206040749288834  0.6433585155437733  1.0000
  I   I2        1.0  0.790075476792553  0.23206040749288834  0.8566414845783193  1.0000
  I   I3        1.0  0.7099245226182048  0.7320604074353887  0.6433585157446458  1.0000
  I   I4        1.0  0.2900754767499057  0.7320604074353887  0.856641484377447  1.0000
  I   I5        1.0  0.7900754772778081  0.7679395923921123  0.3566414841879989  1.0000
  I   I6        1.0  0.20992452323552352  0.7679395923921123  0.14335851563700047  1.0000
  I   I7        1.0  0.2900754774098716  0.26793959244961196  0.3566414844706742  1.0000
  I   I8        1.0  0.7099245232781706  0.26793959244961196  0.14335851583787285  1.0000
  I   I9        1.0  0.7345674760593454  0.23524152830245704  0.6568818289383326  1.0000
  I   I10       1.0  0.2654325233087652  0.23524152830245704  0.8431181711837601  1.0000
  I   I11       1.0  0.2345674760166981  0.7352415282449574  0.6568818287374601  1.0000
  I   I12       1.0  0.7654325231767019  0.7352415282449574  0.843118170901085  1.0000
  I   I13       1.0  0.2654325239687311  0.7647584715825436  0.34311817127698735  1.0000
  I   I14       1.0  0.7345674767193111  0.7647584715825436  0.15688182903155962  1.0000
  I   I15       1.0  0.7654325238366676  0.2647584716400433  0.3431181709943121  1.0000
  I   I16       1.0  0.234567476676664  0.2647584716400433  0.15688182883068727  1.0000
