data_image0
_chemical_formula_structural       H108C92N12O4F6I6
_chemical_formula_sum              "H108 C92 N12 O4 F6 I6"
_cell_length_a       7.697953438841322
_cell_length_b       14.181789275663709
_cell_length_c       22.304667932094468
_cell_angle_alpha    104.58481605995502
_cell_angle_beta     94.4636807713978
_cell_angle_gamma    104.07072435764118

_space_group_name_H-M_alt    "P 1"
_space_group_IT_number       1

loop_
  _space_group_symop_operation_xyz
  'x, y, z'

loop_
  _atom_site_type_symbol
  _atom_site_label
  _atom_site_symmetry_multiplicity
  _atom_site_fract_x
  _atom_site_fract_y
  _atom_site_fract_z
  _atom_site_occupancy
  H   H1        1.0  0.18477681169290375  0.0758942046436143  0.8535457980601898  1.0000
  H   H2        1.0  0.81522318815133  0.9241057955338315  0.14645420193645764  1.0000
  H   H3        1.0  0.6048189736846498  0.5792464230717251  0.9784732042309584  1.0000
  H   H4        1.0  0.3951810258181763  0.42075357637982297  0.0215267957678423  1.0000
  H   H5        1.0  0.6694991885337209  0.47180965906981415  0.9875780689392952  1.0000
  H   H6        1.0  0.33050081131051273  0.5281903411076316  0.012421931057352056  1.0000
  H   H7        1.0  0.7833209036117873  0.5441573935611644  0.9409728561535767  1.0000
  H   H8        1.0  0.21667909752597592  0.455842606605637  0.05902714384032708  1.0000
  H   H9        1.0  0.510766028197464  0.06155735471534537  0.5636385554096819  1.0000
  H   H10       1.0  0.4892339716467697  0.9384426454621003  0.43636144458696535  1.0000
  H   H11       1.0  0.21590150654783413  0.8247972866392338  0.38415646450682167  1.0000
  H   H12       1.0  0.7840984932963996  0.17520271353821187  0.6158435354898255  1.0000
  H   H13       1.0  0.1424070947089717  0.9329309241686131  0.38152569422037763  1.0000
  H   H14       1.0  0.857592905135262  0.06706907600883259  0.6184743057762696  1.0000
  H   H15       1.0  0.5627842317542695  0.12103561768720972  0.6815277749737588  1.0000
  H   H16       1.0  0.43721576808996415  0.8789643824902361  0.3184722250228884  1.0000
  H   H17       1.0  0.7216766232646722  0.7357761753709546  0.22109796711862523  1.0000
  H   H18       1.0  0.2783233765795616  0.2642238248064911  0.7789020328780222  1.0000
  H   H19       1.0  0.8022795087091913  0.6332609020199704  0.23148575190204349  1.0000
  H   H20       1.0  0.19772049113504253  0.3667390981574754  0.7685142480946038  1.0000
  H   H21       1.0  0.8988503964945818  0.7147636366221221  0.34891459620931253  1.0000
  H   H22       1.0  0.1011496046431813  0.2852363635446793  0.6510854037845911  1.0000
  H   H23       1.0  0.821788757369206  0.8211933191270527  0.34622935011216477  1.0000
  H   H24       1.0  0.17821124247502773  0.17880668105039296  0.6537706498844825  1.0000
  H   H25       1.0  0.21941609184505467  0.14007220886372312  0.9696097492268582  1.0000
  H   H26       1.0  0.780583907999179  0.8599277913137227  0.030390250769789275  1.0000
  H   H27       1.0  0.9591832697834476  0.771357193199239  0.1516976731596761  1.0000
  H   H28       1.0  0.04081673006078614  0.2286428069782068  0.8483023268369713  1.0000
  H   H29       1.0  0.031043929219017725  0.666418286326079  0.1614121770740292  1.0000
  H   H30       1.0  0.9689560715773375  0.33358171311482454  0.8385878229220277  1.0000
  H   H31       1.0  0.9492723391142073  0.9041861868621355  0.4653377111272124  1.0000
  H   H32       1.0  0.05072766073002638  0.0958138133153103  0.5346622888694349  1.0000
  H   H33       1.0  0.039074761576318985  0.8006930290075307  0.4697723528451993  1.0000
  H   H34       1.0  0.9609252379265072  0.19930697044401743  0.5302276471536014  1.0000
  H   H35       1.0  0.030945883454958408  0.9372972897692782  0.6838431327339819  1.0000
  H   H36       1.0  0.9690541163892752  0.06270271040816762  0.3161568672626655  1.0000
  H   H37       1.0  0.7362376667345614  0.24721020227767346  0.8637115198485779  1.0000
  H   H38       1.0  0.26376233406179395  0.75278979716323  0.136288480147479  1.0000
  H   H39       1.0  0.6557312106471553  0.6565402325852292  0.09844244958664229  1.0000
  H   H40       1.0  0.3442687891970783  0.34345976759221647  0.901557550410005  1.0000
  H   H41       1.0  0.72259898819661  0.5513990168158426  0.10976427029648282  1.0000
  H   H42       1.0  0.27740101164762365  0.44860098336160315  0.8902357297001644  1.0000
  H   H43       1.0  0.9742009279751995  0.8803903479516796  0.5670709605044388  1.0000
  H   H44       1.0  0.025799071869034355  0.11960965222576633  0.43292903949220857  1.0000
  H   H45       1.0  0.11383574134169311  0.7559472160302921  0.2723511683991264  1.0000
  H   H46       1.0  0.8861642594546622  0.24405278341061146  0.7276488315969306  1.0000
  H   H47       1.0  0.021709101374222658  0.8562957298827117  0.267104562895483  1.0000
  H   H48       1.0  0.9782908997635403  0.1437042702840897  0.7328954370984206  1.0000
  H   H49       1.0  0.7522811658292167  0.30377518424601724  0.9807408376056024  1.0000
  H   H50       1.0  0.24771883401501718  0.6962248159314286  0.019259162391044977  1.0000
  H   H51       1.0  0.9125567027810516  0.6913338017045361  0.03580035836737103  1.0000
  H   H52       1.0  0.08744329835671148  0.3086661984622654  0.9641996416265327  1.0000
  H   H53       1.0  0.9728167637111891  0.5836721389569285  0.04631026698233974  1.0000
  H   H54       1.0  0.02718323613304459  0.41632786122051735  0.9536897330143076  1.0000
  H   H55       1.0  0.6771042718725475  0.2326576434519848  0.5312661473959086  1.0000
  H   H56       1.0  0.3228957279716862  0.767342356725461  0.4687338526007387  1.0000
  H   H57       1.0  0.5108212764792047  0.2808102935993874  0.5697066348135088  1.0000
  H   H58       1.0  0.4891787233650289  0.7191897065780584  0.4302933651831385  1.0000
  H   H59       1.0  0.6392332801204792  0.34698219313284345  0.5230476129038065  1.0000
  H   H60       1.0  0.36076671972375446  0.6530178070446023  0.47695238709284077  1.0000
  H   H61       1.0  0.1500392644446444  0.9106948939576062  0.1295245100786342  1.0000
  H   H62       1.0  0.8499607353995892  0.08930510621983946  0.870475489918013  1.0000
  H   H63       1.0  0.06344623967954256  0.012340821720060487  0.12143679967227194  1.0000
  H   H64       1.0  0.936553760164691  0.9876591784573853  0.8785632003243753  1.0000
  H   H65       1.0  0.8097750127183678  0.7486551203305227  0.9450813738807159  1.0000
  H   H66       1.0  0.19022498712586608  0.25134487984692316  0.05491862611593153  1.0000
  H   H67       1.0  0.05985832117542274  0.6824588033623555  0.5342218612130187  1.0000
  H   H68       1.0  0.940141678668811  0.3175411968150903  0.4657781387836285  1.0000
  H   H69       1.0  0.24163926178798278  0.035150904596950465  0.036697773561648876  1.0000
  H   H70       1.0  0.7583607380562508  0.9648490955804953  0.9633022264349984  1.0000
  H   H71       1.0  0.35055784115633554  0.9411471037927416  0.04756049799060597  1.0000
  H   H72       1.0  0.6494421586878982  0.058852896384704104  0.9524395020060413  1.0000
  H   H73       1.0  0.7653730685280111  0.6878254952009057  0.8285472555966958  1.0000
  H   H74       1.0  0.2346269313162226  0.31217450497654003  0.17145274439995156  1.0000
  H   H75       1.0  0.11763661578006572  0.7509562239213248  0.6515339123707204  1.0000
  H   H76       1.0  0.8823633840641679  0.2490437762561211  0.34846608762592685  1.0000
  H   H77       1.0  0.2725885113851743  0.8960840910175282  0.8265670204102508  1.0000
  H   H78       1.0  0.7274114884590595  0.10391590915991772  0.17343297958639659  1.0000
  H   H79       1.0  0.32054791389142895  0.9584824940735626  0.9436268166522284  1.0000
  H   H80       1.0  0.6794520859528047  0.04151750610388315  0.05637318334441895  1.0000
  H   H81       1.0  0.4610745254777803  0.03136986872335789  0.16510117818921158  1.0000
  H   H82       1.0  0.5389254743664533  0.9686301314540879  0.8348988218074357  1.0000
  H   H83       1.0  0.372321835924065  0.13323876173270505  0.159410038041296  1.0000
  H   H84       1.0  0.6276781635787609  0.866761237718843  0.8405899619575046  1.0000
  H   H85       1.0  0.26011955161488265  0.9921029489595886  0.24214758122108104  1.0000
  H   H86       1.0  0.7398804495228805  0.007897051207212775  0.7578524187728225  1.0000
  H   H87       1.0  0.1589451816886907  0.08870657836304008  0.23553416385646292  1.0000
  H   H88       1.0  0.841054818155543  0.9112934218144058  0.7644658361401844  1.0000
  H   H89       1.0  0.5982019266820243  0.5530599883892159  0.6552747097697046  1.0000
  H   H90       1.0  0.40179807445573884  0.4469400117775856  0.3447252902241991  1.0000
  H   H91       1.0  0.24506059663588728  0.17238311409166532  0.3521377136146222  1.0000
  H   H92       1.0  0.7549394032083465  0.8276168860857805  0.647862286382025  1.0000
  H   H93       1.0  0.32641160316609635  0.06705727514695198  0.3540705053629231  1.0000
  H   H94       1.0  0.6735883966781374  0.9329427250304939  0.6459294946337242  1.0000
  H   H95       1.0  0.5589793897824139  0.12234787836759832  0.28550610162653833  1.0000
  H   H96       1.0  0.4410206113553492  0.877652121799203  0.7144938983673653  1.0000
  H   H97       1.0  0.45703163689246706  0.21911831760861383  0.27983759749232207  1.0000
  H   H98       1.0  0.5429683629517666  0.780881682568832  0.7201624025043252  1.0000
  H   H99       1.0  0.5600537393622413  0.4931038355435945  0.5386051843571016  1.0000
  H   H100      1.0  0.4399462601405847  0.5068961639079537  0.46139481564169915  1.0000
  H   H101      1.0  0.5535576921770685  0.28835367172709486  0.4034195657565081  1.0000
  H   H102      1.0  0.44644230766716525  0.7116463284503509  0.5965804342401392  1.0000
  H   H103      1.0  0.6276181142952084  0.18116584859944718  0.4069979390059293  1.0000
  H   H104      1.0  0.37238188650114695  0.8188341508414564  0.5930020609901278  1.0000
  H   H105      1.0  0.31578187626382764  0.24463432257193513  0.46872802412677406  1.0000
  H   H106      1.0  0.6842181232389983  0.7553656768796129  0.5312719758720266  1.0000
  H   H107      1.0  0.3774104440780824  0.1331313814816101  0.4702956478389121  1.0000
  H   H108      1.0  0.6225895557661514  0.8668686186958356  0.5297043521577351  1.0000
  C   C1        1.0  0.7602585045543352  0.44168226581110265  0.2577564851771252  1.0000
  C   C2        1.0  0.23974149528989847  0.558317734366343  0.742243514819522  1.0000
  C   C3        1.0  0.9817861468364681  0.472936406704099  0.19093787306706214  1.0000
  C   C4        1.0  0.018213853007765533  0.5270635934733469  0.8090621269295851  1.0000
  C   C5        1.0  0.05600347607982686  0.5490817992678426  0.30099159460484415  1.0000
  C   C6        1.0  0.9439965237644068  0.4509182009096033  0.6990084053918032  1.0000
  C   C7        1.0  0.8050753169811855  0.42555271753391977  0.1971125101084356  1.0000
  C   C8        1.0  0.19492468286304818  0.574447282643526  0.8028874898882117  1.0000
  C   C9        1.0  0.8819668472562412  0.5042286356852032  0.3106647895139339  1.0000
  C   C10       1.0  0.11803315224658485  0.4957713637663449  0.6893352104848668  1.0000
  C   C11       1.0  0.1111891006891768  0.5336360382942633  0.24205742273810482  1.0000
  C   C12       1.0  0.8888109004485862  0.466363961872538  0.7579425772557987  1.0000
  C   C13       1.0  0.4597564912560326  0.15581091610873102  0.849749944145285  1.0000
  C   C14       1.0  0.540243508588201  0.8441890840687146  0.15025005585136209  1.0000
  C   C15       1.0  0.24054750976160527  0.9685409916077033  0.5585804966553579  1.0000
  C   C16       1.0  0.7594524900826283  0.03145900856974235  0.4414195033412893  1.0000
  C   C17       1.0  0.29860224267619245  0.032316830635114036  0.6894721674507448  1.0000
  C   C18       1.0  0.7013977568266336  0.967683168816434  0.31052783254805577  1.0000
  C   C19       1.0  0.3123152627633189  0.12598392681763687  0.8804089703774376  1.0000
  C   C20       1.0  0.6876847367395071  0.8740160726339111  0.11959102962136292  1.0000
  C   C21       1.0  0.4070176694979185  0.036484071524394875  0.591085598665459  1.0000
  C   C22       1.0  0.5929823303463152  0.9635159286530509  0.4089144013311884  1.0000
  C   C23       1.0  0.1006996687991769  0.8578658351813886  0.389857765152744  1.0000
  C   C24       1.0  0.8993003310450568  0.1421341649960572  0.6101422348439033  1.0000
  C   C25       1.0  0.43588904939156775  0.06828040613082029  0.6556332019192894  1.0000
  C   C26       1.0  0.5641109514047875  0.9317195933100834  0.3443667980767676  1.0000
  C   C27       1.0  0.843409179934962  0.7078542924694861  0.22234371409729928  1.0000
  C   C28       1.0  0.15659082120280102  0.29214570769731524  0.7776562858966044  1.0000
  C   C29       1.0  0.9396572326494855  0.7902201265314228  0.34112996969510273  1.0000
  C   C30       1.0  0.06034276848827759  0.20977987363537864  0.658870030298801  1.0000
  C   C31       1.0  0.3332673131934092  0.16200059243299558  0.9451983433562575  1.0000
  C   C32       1.0  0.6667326866508245  0.8379994077444503  0.05480165664038983  1.0000
  C   C33       1.0  0.9110321527658994  0.6957160631243432  0.15904835458981442  1.0000
  C   C34       1.0  0.0889678467369266  0.3042839363272049  0.8409516454089861  1.0000
  C   C35       1.0  0.06530979933423041  0.8724882088645782  0.4569302093828527  1.0000
  C   C36       1.0  0.9346902001685956  0.1275117905869698  0.543069790615948  1.0000
  C   C37       1.0  0.13414536511063793  0.9642332827122453  0.6567130274609968  1.0000
  C   C38       1.0  0.865854634392188  0.035766716739302665  0.3432869725378038  1.0000
  C   C39       1.0  0.6204850079459703  0.2216546064310514  0.8862565362194096  1.0000
  C   C40       1.0  0.37951499155685575  0.7783453930204968  0.11374346377939115  1.0000
  C   C41       1.0  0.7743868323014795  0.6267092477047239  0.102571934233641  1.0000
  C   C42       1.0  0.22561316754275407  0.3732907524727218  0.8974280657630064  1.0000
  C   C43       1.0  0.10311492227353286  0.93240901277807  0.5916137626717869  1.0000
  C   C44       1.0  0.8968850775707009  0.06759098739937577  0.4083862373248604  1.0000
  C   C45       1.0  0.9885523720446823  0.7807387914129288  0.2752477601130842  1.0000
  C   C46       1.0  0.01144762745814375  0.2192612080386192  0.7247522398857165  1.0000
  C   C47       1.0  0.6282519759873427  0.25326184824787495  0.9510652639092632  1.0000
  C   C48       1.0  0.371748023856891  0.7467381519295708  0.048934736087384204  1.0000
  C   C49       1.0  0.856481626026028  0.615379900696614  0.0417310564472693  1.0000
  C   C50       1.0  0.14351837511173515  0.3846200994701874  0.9582689435466343  1.0000
  C   C51       1.0  0.7220051149597525  0.5491543413586463  0.9839626334661238  1.0000
  C   C52       1.0  0.2779948848844812  0.45084565881879946  0.016037366530523442  1.0000
  C   C53       1.0  0.8592899430033465  0.657727428201645  0.6620275828173676  1.0000
  C   C54       1.0  0.14071005649947946  0.342272571249903  0.33797241718143295  1.0000
  C   C55       1.0  0.018464497523486386  0.7890147179338559  0.8209435719633228  1.0000
  C   C56       1.0  0.9815355019793396  0.21098528151769216  0.17905642803547783  1.0000
  C   C57       1.0  0.06636389379476654  0.858107834756133  0.9513631998825384  1.0000
  C   C58       1.0  0.9336361060494671  0.14189216542131272  0.048636800114108876  1.0000
  C   C59       1.0  0.1847233752901385  0.9843098691353895  0.11902717399997396  1.0000
  C   C60       1.0  0.8152766242126873  0.015690130316158325  0.8809728259988265  1.0000
  C   C61       1.0  0.9100016851007987  0.7809427079618368  0.918645863118737  1.0000
  C   C62       1.0  0.0899983156955567  0.21905729147906683  0.08135413687731999  1.0000
  C   C63       1.0  0.9593259285736246  0.6568561930553346  0.5628482287443146  1.0000
  C   C64       1.0  0.04067407092920135  0.3431438063962135  0.437151771254486  1.0000
  C   C65       1.0  0.22649976685797596  0.9664353945753608  0.05259956636732677  1.0000
  C   C66       1.0  0.7735002329862577  0.03356460560208506  0.9474004336293206  1.0000
  C   C67       1.0  0.8858226568274723  0.7468002944502841  0.8542599200645393  1.0000
  C   C68       1.0  0.11417734267535366  0.2531997050012638  0.14574007993426127  1.0000
  C   C69       1.0  0.9922267789141024  0.6947749236500785  0.6276271329689724  1.0000
  C   C70       1.0  0.007773222223660489  0.30522507651672287  0.37237286702493116  1.0000
  C   C71       1.0  0.1733399472805897  0.8652824589054575  0.8537525345486141  1.0000
  C   C72       1.0  0.8266600522222365  0.1347175405460906  0.14624746545018652  1.0000
  C   C73       1.0  0.19905347052798422  0.899960207941781  0.9187337810896611  1.0000
  C   C74       1.0  0.8009465293162495  0.10003979223566493  0.0812662189069864  1.0000
  C   C75       1.0  0.3384995784901248  0.058297362335352154  0.16824113020784903  1.0000
  C   C76       1.0  0.6615004213541089  0.9417026378420935  0.8317588697887982  1.0000
  C   C77       1.0  0.28761562535596485  0.06750777855794761  0.23381052983721065  1.0000
  C   C78       1.0  0.7123843744882687  0.9324922216194981  0.7661894701594365  1.0000
  C   C79       1.0  0.7019927003545519  0.5835637270576559  0.6295566526846739  1.0000
  C   C80       1.0  0.29800729914827423  0.41643627239389225  0.3704433473141268  1.0000
  C   C81       1.0  0.36777188248389475  0.1452686592107711  0.3503029049760931  1.0000
  C   C82       1.0  0.6322281170189312  0.8547313402407769  0.6496970950227074  1.0000
  C   C83       1.0  0.42970216079185486  0.14290492017173698  0.286725658733825  1.0000
  C   C84       1.0  0.570297839052379  0.8570950800057089  0.7132743412628223  1.0000
  C   C85       1.0  0.6816536633650594  0.5509168682814664  0.5646545831553771  1.0000
  C   C86       1.0  0.31834633647917426  0.4490831318959795  0.4353454168412702  1.0000
  C   C87       1.0  0.5070993469199555  0.2102691524117151  0.40700998242415903  1.0000
  C   C88       1.0  0.49290065421780765  0.7897308477550864  0.5929900175697447  1.0000
  C   C89       1.0  0.4317019629379627  0.21176446384262934  0.4685380227740099  1.0000
  C   C90       1.0  0.5682980369062709  0.7882355363348164  0.5314619772226374  1.0000
  C   C91       1.0  0.5712954425894993  0.2711477450639805  0.5262997821854332  1.0000
  C   C92       1.0  0.4287045569133268  0.7288522543875675  0.47370021781336746  1.0000
  N   N1        1.0  0.4572788358994449  0.12605339357000578  0.7841212308703961  1.0000
  N   N2        1.0  0.542721163603381  0.8739466058815422  0.2158787691284045  1.0000
  N   N3        1.0  0.31087623874852816  0.061086011760090785  0.7546333375512492  1.0000
  N   N4        1.0  0.6891237623892349  0.9389139884067107  0.24536666244265462  1.0000
  N   N5        1.0  0.4877877042594156  0.22446877740401983  0.9808096346667363  1.0000
  N   N6        1.0  0.5122122955848181  0.7755312227734259  0.01919036532991086  1.0000
  N   N7        1.0  0.8064196738109205  0.5869442506787144  0.5312790376951279  1.0000
  N   N8        1.0  0.19358032732684252  0.413055749488087  0.46872096229877575  1.0000
  N   N9        1.0  0.8694095973290713  0.6875652291870632  0.7276431270770328  1.0000
  N   N10       1.0  0.13059040217375473  0.3124347702644849  0.2723568729217678  1.0000
  N   N11       1.0  0.008111919406407877  0.7595700803838175  0.7557690729294283  1.0000
  N   N12       1.0  0.9918880800964182  0.2404299190677306  0.24423092706937238  1.0000
  O   O1        1.0  0.22796203660705397  0.9431006971378232  0.4954004083227134  1.0000
  O   O2        1.0  0.7720379645307092  0.05689930302897825  0.5045995916711903  1.0000
  O   O3        1.0  0.07424182033431838  0.8869801210320891  0.014413953920635665  1.0000
  O   O4        1.0  0.9257581795099155  0.11301987914535677  0.9855860460760117  1.0000
  F   F1        1.0  0.5907882335846081  0.3952478129492963  0.2654832482804818  1.0000
  F   F2        1.0  0.4092117662596255  0.6047521872281495  0.7345167517161655  1.0000
  F   F3        1.0  0.17800632809617983  0.61079262798082  0.35096146313046295  1.0000
  F   F4        1.0  0.8219936717480538  0.38920737219662577  0.6490385368661843  1.0000
  F   F5        1.0  0.02993708662151889  0.4598030188710207  0.1329474354961948  1.0000
  F   F6        1.0  0.9700629132227148  0.5401969813064251  0.8670525645004525  1.0000
  I   I1        1.0  0.8201190619221532  0.533659764428364  0.4038697687071308  1.0000
  I   I2        1.0  0.17988093792208043  0.46634023574908157  0.5961302312895165  1.0000
  I   I3        1.0  0.6257754337397358  0.3344958408681918  0.11534076327704768  1.0000
  I   I4        1.0  0.3742245657630903  0.6655041585833563  0.8846592367217531  1.0000
  I   I5        1.0  0.37680780078565945  0.59933482758086  0.23183494879490849  1.0000
  I   I6        1.0  0.6231921990585743  0.4006651725965858  0.7681650512017388  1.0000
