data_image0
_chemical_formula_structural       H50C48N6O8Cl8
_chemical_formula_sum              "H50 C48 N6 O8 Cl8"
_cell_length_a       8.603830117773578
_cell_length_b       21.901536366793486
_cell_length_c       6.471927596531782
_cell_angle_alpha    91.31431087084682
_cell_angle_beta     90.84058903807174
_cell_angle_gamma    92.1107828478003

_space_group_name_H-M_alt    "P 1"
_space_group_IT_number       1

loop_
  _space_group_symop_operation_xyz
  'x, y, z'

loop_
  _atom_site_type_symbol
  _atom_site_label
  _atom_site_symmetry_multiplicity
  _atom_site_fract_x
  _atom_site_fract_y
  _atom_site_fract_z
  _atom_site_occupancy
  H   H1        1.0  0.7586468970535865  0.9858797860394186  0.24431806060926525  1.0000
  H   H2        1.0  0.24135310257552764  0.014120213678223427  0.7556819392753498  1.0000
  H   H3        1.0  0.5828127976235074  0.0042186467356054224  0.1176143610841448  1.0000
  H   H4        1.0  0.41718720204125886  0.995781353438843  0.8823856387899003  1.0000
  H   H5        1.0  0.5917498654857937  0.0020059671802162534  0.39102537419839484  1.0000
  H   H6        1.0  0.4082501353565062  0.9979940330109016  0.6089746272257691  1.0000
  H   H7        1.0  0.3565975711579942  0.9476002166371755  0.242707412274522  1.0000
  H   H8        1.0  0.6434024285067719  0.052399783537272863  0.7572925875995231  1.0000
  H   H9        1.0  0.3753880725957753  0.8772786921980388  0.10234043601789893  1.0000
  H   H10       1.0  0.6246119270333387  0.12272130751960325  0.8976595638667161  1.0000
  H   H11       1.0  0.38008969845921586  0.8783966822546349  0.37827959090574415  1.0000
  H   H12       1.0  0.61991030236811  0.12160331792262873  0.6217204089727346  1.0000
  H   H13       1.0  0.8978062208457277  0.9249026813288213  0.23748212333629626  1.0000
  H   H14       1.0  0.10219377881903842  0.07509731884562727  0.7625178765377487  1.0000
  H   H15       1.0  0.49823866448294635  0.7976377465261704  0.23251517177385098  1.0000
  H   H16       1.0  0.5017613363087273  0.20236225319428683  0.7674848281151977  1.0000
  H   H17       1.0  0.06862596837953724  0.8398539437925584  0.22595973086201787  1.0000
  H   H18       1.0  0.9313740324477885  0.16014605638470525  0.7740402690164608  1.0000
  H   H19       1.0  0.6744650058840429  0.7129242207913014  0.22368561556695696  1.0000
  H   H20       1.0  0.32553499494328286  0.28707577938596224  0.7763143843115217  1.0000
  H   H21       1.0  0.3555209377396011  0.6176242123634279  0.44750555788017976  1.0000
  H   H22       1.0  0.6444790618895129  0.38237578735421407  0.5524944420044353  1.0000
  H   H23       1.0  0.38795623350880953  0.6981269183661435  0.44221811137232353  1.0000
  H   H24       1.0  0.6120437673334904  0.3018730818249743  0.5577818900518404  1.0000
  H   H25       1.0  0.2134589051604396  0.6681571653968961  0.5479686395969948  1.0000
  H   H26       1.0  0.7865410944686744  0.3318428343207459  0.4520313602876203  1.0000
  H   H27       1.0  0.40605730025537184  0.6163895154769339  0.053296921331320676  1.0000
  H   H28       1.0  0.5939426994093944  0.3836104846975145  0.9467030785427244  1.0000
  H   H29       1.0  0.3031825133113685  0.6668500623606057  0.8910661066358776  1.0000
  H   H30       1.0  0.6968174875159573  0.3331499378166579  0.10893389324260105  1.0000
  H   H31       1.0  0.4378289668258282  0.6967297460133275  0.07911216411559176  1.0000
  H   H32       1.0  0.562171032838938  0.30327025416112086  0.9208878357584533  1.0000
  H   H33       1.0  0.07029365683610375  0.5828100465730355  0.48779979921182803  1.0000
  H   H34       1.0  0.9297063428286625  0.417189953601413  0.512200200662217  1.0000
  H   H35       1.0  0.9650398968100311  0.5380679921152498  0.29692099853057113  1.0000
  H   H36       1.0  0.03496010283405694  0.46193200761624625  0.7030790028997292  1.0000
  H   H37       1.0  0.17214825043347823  0.5364656004455942  0.31007505751354575  1.0000
  H   H38       1.0  0.8278517491956359  0.4635343992720478  0.6899249423710693  1.0000
  H   H39       1.0  0.953504067550166  0.5662256091756639  0.9386634955859672  1.0000
  H   H40       1.0  0.04649593327715979  0.43377439100159976  0.06133650429251152  1.0000
  H   H41       1.0  0.06322337725103931  0.6294288949430814  0.841172105798545  1.0000
  H   H42       1.0  0.9367766223780748  0.3705711047745604  0.15882789408607023  1.0000
  H   H43       1.0  0.1592503659719138  0.5619673479692648  0.9157109949629041  1.0000
  H   H44       1.0  0.8407496336572002  0.4380326517483771  0.08428900492171103  1.0000
  H   H45       1.0  0.29079906970973934  0.41927270448224824  0.5247740171780241  1.0000
  H   H46       1.0  0.7092009299193747  0.5807272952353938  0.475225982706591  1.0000
  H   H47       1.0  0.37121778524339905  0.4800446252992818  0.8350324692936276  1.0000
  H   H48       1.0  0.6287822144213672  0.5199553748751666  0.16496753058041747  1.0000
  H   H49       1.0  0.41782868694161496  0.43839877955022366  0.186308663503065  1.0000
  H   H50       1.0  0.5821713127231513  0.5616012206242248  0.8136913363709801  1.0000
  C   C1        1.0  0.04094836350239115  0.2144663326983855  0.27080215182632555  1.0000
  C   C2        1.0  0.9590516372892824  0.7855336670220717  0.729197848062723  1.0000
  C   C3        1.0  0.20662306953044207  0.23388359256275876  0.27228119469062717  1.0000
  C   C4        1.0  0.7933769301343241  0.7661164076116896  0.7277188051834179  1.0000
  C   C5        1.0  0.008459276665139702  0.147760073046362  0.2667041216148536  1.0000
  C   C6        1.0  0.9915407230146005  0.8522399271419406  0.7332958798048769  1.0000
  C   C7        1.0  0.3231770177463687  0.19309907584445543  0.2677073451798501  1.0000
  C   C8        1.0  0.6768229830453051  0.8069009238760018  0.7322926547091985  1.0000
  C   C9        1.0  0.12487046664996729  0.10705426804442919  0.26201562137097506  1.0000
  C   C10       1.0  0.8751295341773585  0.8929457321328343  0.7379843785075036  1.0000
  C   C11       1.0  0.29051717117801773  0.12663773251328983  0.26157503359015977  1.0000
  C   C12       1.0  0.7094828284510963  0.8733622672043521  0.7384249662944553  1.0000
  C   C13       1.0  0.6324717668295703  0.9801294300056326  0.24840006994245628  1.0000
  C   C14       1.0  0.36752823279954366  0.019870569712009203  0.7515999299421589  1.0000
  C   C15       1.0  0.41436065782496584  0.9038427840314441  0.24073530450180425  1.0000
  C   C16       1.0  0.5856393418041481  0.09615721568619799  0.7592646953828109  1.0000
  C   C17       1.0  0.6811480609177255  0.8694790353276176  0.23505885787586758  1.0000
  C   C18       1.0  0.3188519387470408  0.1305209648468307  0.7649411419981775  1.0000
  C   C19       1.0  0.8456911425907961  0.8789353812619807  0.2338754499009078  1.0000
  C   C20       1.0  0.15430885707397  0.12106461891246777  0.7661245499731374  1.0000
  C   C21       1.0  0.6230290062942967  0.807547053549489  0.23135583701911766  1.0000
  C   C22       1.0  0.37697099337046946  0.1924529466249593  0.7686441628549274  1.0000
  C   C23       1.0  0.9439182811442126  0.830763085913852  0.22776299271446374  1.0000
  C   C24       1.0  0.05608171848490133  0.16923691380378988  0.7722370071701514  1.0000
  C   C25       1.0  0.7218396603003061  0.7595502191292662  0.22569737864069428  1.0000
  C   C26       1.0  0.2781603393644601  0.24044978104518222  0.7743026212333508  1.0000
  C   C27       1.0  0.8857283493738763  0.7693725108859655  0.2220693333907791  1.0000
  C   C28       1.0  0.11427165025523761  0.23062748883167644  0.7779306664938359  1.0000
  C   C29       1.0  0.9891762600713898  0.719181935336089  0.21129051791768805  1.0000
  C   C30       1.0  0.010823739557724163  0.280818064381553  0.788709481966927  1.0000
  C   C31       1.0  0.22441631159819558  0.662989693954499  0.21072986904444477  1.0000
  C   C32       1.0  0.7755836891934779  0.33701030576595814  0.7892701308446038  1.0000
  C   C33       1.0  0.0828230865875091  0.617527078351407  0.17471668471993412  1.0000
  C   C34       1.0  0.9171769142398168  0.3824729218258566  0.8252833151585445  1.0000
  C   C35       1.0  0.2990145405768894  0.6611412644724872  0.42661061565134856  1.0000
  C   C36       1.0  0.7009854590878767  0.3388587357019611  0.5733893842226966  1.0000
  C   C37       1.0  0.3495177642776006  0.6604178093764924  0.04700087756624182  1.0000
  C   C38       1.0  0.6504822365497251  0.3395821908007711  0.9529991223122368  1.0000
  C   C39       1.0  0.07203287127419943  0.5656712684068448  0.32756320109340564  1.0000
  C   C40       1.0  0.9279671283905668  0.4343287317676036  0.6724367987806394  1.0000
  C   C41       1.0  0.06451417146967482  0.59237926842363  0.952345465560446  1.0000
  C   C42       1.0  0.935485829357651  0.40762073175363367  0.04765453431803274  1.0000
  C   C43       1.0  0.3817020777648248  0.45486199466803146  0.511901874754533  1.0000
  C   C44       1.0  0.6182979218642892  0.5451380050496105  0.4880981251300821  1.0000
  C   C45       1.0  0.42803522746146994  0.4891046923344253  0.6886402677184762  1.0000
  C   C46       1.0  0.5719647722032963  0.5108953078400231  0.3113597321555689  1.0000
  C   C47       1.0  0.4536129023212304  0.46569632393792537  0.3232618381564075  1.0000
  C   C48       1.0  0.5463870973435357  0.534303676236523  0.6767381617176376  1.0000
  N   N1        1.0  0.5821275853089152  0.9161015206168658  0.2392486952944246  1.0000
  N   N2        1.0  0.417872414355851  0.08389847955758252  0.7607513045796206  1.0000
  N   N3        1.0  0.14805543023318363  0.7238483504440614  0.20046716210092994  1.0000
  N   N4        1.0  0.8519445705941421  0.2761516497332023  0.7995328377775487  1.0000
  N   N5        1.0  0.9478575870643645  0.6583256413936428  0.207922604793656  1.0000
  N   N6        1.0  0.052142412600401776  0.3416743587808056  0.7920773950803891  1.0000
  O   O1        1.0  0.9353819388344945  0.25193601106379165  0.27286986306523453  1.0000
  O   O2        1.0  0.06461806195717924  0.7480639886566655  0.7271301368238141  1.0000
  O   O3        1.0  0.39596124442207214  0.08932679807998108  0.25736361921576545  1.0000
  O   O4        1.0  0.6040387552070419  0.9106732016376607  0.7426363806688496  1.0000
  O   O5        1.0  0.23132868854560912  0.7725633459037354  0.20153690073503594  1.0000
  O   O6        1.0  0.7686713110835048  0.22743665381390651  0.7984630991495791  1.0000
  O   O7        1.0  0.8102547051505399  0.6349222925231702  0.21170780875583822  1.0000
  O   O8        1.0  0.18974529567678594  0.36507770765409336  0.7882921911226404  1.0000
  Cl  Cl1       1.0  0.2461550591072376  0.31101901109002045  0.2797932085520342  1.0000
  Cl  Cl2       1.0  0.753844941684436  0.6889809886304368  0.7202067913370146  1.0000
  Cl  Cl3       1.0  0.8173506848810252  0.12441722381797952  0.2680819792948858  1.0000
  Cl  Cl4       1.0  0.1826493147480887  0.8755827758996625  0.7319180205897293  1.0000
  Cl  Cl5       1.0  0.5150572291814209  0.2153023216456024  0.268927999494802  1.0000
  Cl  Cl6       1.0  0.4849427716459049  0.7846976785316614  0.7310720003836766  1.0000
  Cl  Cl7       1.0  0.08878704037688825  0.029647359337625703  0.25673625798589117  1.0000
  Cl  Cl8       1.0  0.911212959287878  0.9703526408368228  0.7432637418881539  1.0000
