data_image0
_chemical_formula_structural       H108C81N12F21Cl9
_chemical_formula_sum              "H108 C81 N12 F21 Cl9"
_cell_length_a       13.960429086088299
_cell_length_b       13.960429086088169
_cell_length_c       11.90049656450772
_cell_angle_alpha    90.0
_cell_angle_beta     90.0
_cell_angle_gamma    120.00000000000033

_space_group_name_H-M_alt    "P 1"
_space_group_IT_number       1

loop_
  _space_group_symop_operation_xyz
  'x, y, z'

loop_
  _atom_site_type_symbol
  _atom_site_label
  _atom_site_symmetry_multiplicity
  _atom_site_fract_x
  _atom_site_fract_y
  _atom_site_fract_z
  _atom_site_occupancy
  H   H1        1.0  0.3590716998532643  0.10647351865123339  0.6506893815754252  1.0000
  H   H2        1.0  0.8935264812107095  0.252598181375268  0.6506893815754252  1.0000
  H   H3        1.0  0.7474018183247464  0.6409282995896967  0.6506893815754252  1.0000
  H   H4        1.0  0.025738366606059344  0.43980685204172704  0.9840227150625975  1.0000
  H   H5        1.0  0.5601931479635045  0.5859315147657617  0.9840227150625975  1.0000
  H   H6        1.0  0.4140684850775414  0.9742616329801903  0.9840227150625975  1.0000
  H   H7        1.0  0.6924050335465063  0.7731401852471264  0.3173560480882529  1.0000
  H   H8        1.0  0.22685981471629943  0.9192648481562552  0.3173560480882529  1.0000
  H   H9        1.0  0.0807351521006098  0.30759496638429734  0.3173560480882529  1.0000
  H   H10       1.0  0.16804545732002274  0.049591816749211155  0.2199610248035295  1.0000
  H   H11       1.0  0.9504081830494585  0.1184536403569738  0.2199610248035295  1.0000
  H   H12       1.0  0.8815463590192391  0.8319545425100132  0.2199610248035295  1.0000
  H   H13       1.0  0.8347121242604697  0.3829251499546105  0.5532943582907018  1.0000
  H   H14       1.0  0.6170748498022536  0.45178697374746746  0.5532943582907018  1.0000
  H   H15       1.0  0.5482130260423074  0.16528787591412022  0.5532943582907018  1.0000
  H   H16       1.0  0.5013787910132647  0.7162584833451041  0.8866276917778741  1.0000
  H   H17       1.0  0.28374151655504853  0.785120307137961  0.8866276917778741  1.0000
  H   H18       1.0  0.2148796927951024  0.49862120930461384  0.8866276917778741  1.0000
  H   H19       1.0  0.12088018502048277  0.12515069792568306  0.3002634495653765  1.0000
  H   H20       1.0  0.8748493017231062  0.9957294867589686  0.3002634495653765  1.0000
  H   H21       1.0  0.004270512903516419  0.8791198151030274  0.3002634495653765  1.0000
  H   H22       1.0  0.7875468519609298  0.4584840311310825  0.6335967830525487  1.0000
  H   H23       1.0  0.5415159687461744  0.3290628201630754  0.6335967830525487  1.0000
  H   H24       1.0  0.6709371793979265  0.21245314832204026  0.6335967830525487  1.0000
  H   H25       1.0  0.4542135187137248  0.7918173645215761  0.9669301165397212  1.0000
  H   H26       1.0  0.2081826354989694  0.6623961535535691  0.9669301165397212  1.0000
  H   H27       1.0  0.3376038461507214  0.5457864817125339  0.9669301165397212  1.0000
  H   H28       1.0  0.3144140252744869  0.30066264046691016  0.9704356299251389  1.0000
  H   H29       1.0  0.699337359496424  0.013751384574584278  0.9704356299251389  1.0000
  H   H30       1.0  0.9862486146178095  0.6855859745747037  0.9704356299251389  1.0000
  H   H31       1.0  0.9810806922149339  0.6339959736723096  0.30376896295079425  1.0000
  H   H32       1.0  0.36600402624921885  0.3470847179650779  0.30376896295079425  1.0000
  H   H33       1.0  0.6529152816408779  0.01891930797881073  0.30376896295079425  1.0000
  H   H34       1.0  0.647747358967729  0.9673293070628032  0.6371022964379666  1.0000
  H   H35       1.0  0.0326706930020138  0.6804180513555714  0.6371022964379666  1.0000
  H   H36       1.0  0.3195819483936729  0.35225264136930434  0.6371022964379666  1.0000
  H   H37       1.0  0.17855589778657202  0.281048344394583  0.9455551689800834  1.0000
  H   H38       1.0  0.7189516554962494  0.8975075537122823  0.9455551689800834  1.0000
  H   H39       1.0  0.102492446777846  0.8214441025079379  0.9455551689800834  1.0000
  H   H40       1.0  0.8452225647270191  0.6143816775999824  0.2788885020057389  1.0000
  H   H41       1.0  0.38561832251931766  0.23084088711638925  0.2788885020057389  1.0000
  H   H42       1.0  0.769159113272256  0.15477743572695052  0.2788885020057389  1.0000
  H   H43       1.0  0.511889231479814  0.947715010990476  0.6122218354929112  1.0000
  H   H44       1.0  0.05228498927211267  0.5641742205068829  0.6122218354929112  1.0000
  H   H45       1.0  0.43582578002505096  0.48811076911744417  0.6122218354929112  1.0000
  H   H46       1.0  0.082572792621898  0.2101970474121573  0.778458265147461  1.0000
  H   H47       1.0  0.7898029524324458  0.8723757454344694  0.778458265147461  1.0000
  H   H48       1.0  0.12762425459276144  0.9174272069410522  0.778458265147461  1.0000
  H   H49       1.0  0.749239459975907  0.5435303814446807  0.11179159817311647  1.0000
  H   H50       1.0  0.45646961873920383  0.20570907883857653  0.11179159817311647  1.0000
  H   H51       1.0  0.7942909210871716  0.250760540160065  0.11179159817311647  1.0000
  H   H52       1.0  0.41590612672870203  0.8768637148351743  0.44512493166028877  1.0000
  H   H53       1.0  0.12313628549199881  0.5390424122290701  0.44512493166028877  1.0000
  H   H54       1.0  0.4609575878399665  0.5840938735505586  0.44512493166028877  1.0000
  H   H55       1.0  0.07339970145833813  0.13711820061815994  0.5843760251770366  1.0000
  H   H56       1.0  0.862881799401111  0.9362815005481514  0.5843760251770366  1.0000
  H   H57       1.0  0.06371849950396653  0.9266002986213677  0.5843760251770366  1.0000
  H   H58       1.0  0.7400663683987851  0.47045153382355936  0.9177093586642088  1.0000
  H   H59       1.0  0.529548465707869  0.2696148339522583  0.9177093586642088  1.0000
  H   H60       1.0  0.7303851659983766  0.2599336318403805  0.9177093586642088  1.0000
  H   H61       1.0  0.40673303515158016  0.803784867214053  0.25104269168986426  1.0000
  H   H62       1.0  0.19621513246066397  0.6029481673427519  0.25104269168986426  1.0000
  H   H63       1.0  0.39705183275117156  0.5932669652308742  0.25104269168986426  1.0000
  H   H64       1.0  0.1003912509390462  0.21071502056916472  0.1171913846149403  1.0000
  H   H65       1.0  0.7892849793575911  0.889676229967087  0.1171913846149403  1.0000
  H   H66       1.0  0.1103237700667782  0.8996087492514272  0.1171913846149403  1.0000
  H   H67       1.0  0.767057917163183  0.5440483537745642  0.45052471810211264  1.0000
  H   H68       1.0  0.4559516456643492  0.22300956337119401  0.45052471810211264  1.0000
  H   H69       1.0  0.7769904365611883  0.23294208247044002  0.45052471810211264  1.0000
  H   H70       1.0  0.4337245839159778  0.8773816871650577  0.7838580515892849  1.0000
  H   H71       1.0  0.12261831241714416  0.5563428967616876  0.7838580515892849  1.0000
  H   H72       1.0  0.4436571033139833  0.5662754158609337  0.7838580515892849  1.0000
  H   H73       1.0  0.23501651526894515  0.24804325231872124  0.16484419363228056  1.0000
  H   H74       1.0  0.7519567473384946  0.9869732629528698  0.16484419363228056  1.0000
  H   H75       1.0  0.013026737039665573  0.7649834845160881  0.16484419363228056  1.0000
  H   H76       1.0  0.9016831814930818  0.5813765855241205  0.4981775271194529  1.0000
  H   H77       1.0  0.418623414361563  0.3203065963569767  0.4981775271194529  1.0000
  H   H78       1.0  0.6796934039476377  0.09831681856222484  0.4981775271194529  1.0000
  H   H79       1.0  0.5683498482458768  0.9147099189146142  0.8315108606066252  1.0000
  H   H80       1.0  0.08529008070079595  0.6536399289203464  0.8315108606066252  1.0000
  H   H81       1.0  0.3463600702868706  0.4316501511255945  0.8315108606066252  1.0000
  H   H82       1.0  0.3673592197493801  0.17603760887834166  0.8459618811222648  1.0000
  H   H83       1.0  0.8239623910672721  0.19132161098333636  0.8459618811222648  1.0000
  H   H84       1.0  0.8086783892883787  0.6326407797545202  0.8459618811222648  1.0000
  H   H85       1.0  0.03402588650217502  0.5093709422688353  0.17929521498822124  1.0000
  H   H86       1.0  0.4906290571037566  0.5246549443738299  0.17929521498822124  1.0000
  H   H87       1.0  0.47534505604117366  0.9659741131450138  0.17929521498822124  1.0000
  H   H88       1.0  0.700692553856184  0.8427042763013586  0.5126285484753935  1.0000
  H   H89       1.0  0.15729572385655163  0.8579882777643236  0.5126285484753935  1.0000
  H   H90       1.0  0.14201172234793163  0.2993074465491208  0.5126285484753935  1.0000
  H   H91       1.0  0.2332063242230854  0.11029445409415377  0.03087209327850411  1.0000
  H   H92       1.0  0.8897055463031032  0.12291187071679965  0.03087209327850411  1.0000
  H   H93       1.0  0.8770881292760937  0.7667936756323688  0.03087209327850411  1.0000
  H   H94       1.0  0.8998729911635325  0.4436277872995532  0.36420542592537536  1.0000
  H   H95       1.0  0.5563722130558981  0.45624520410729325  0.36420542592537536  1.0000
  H   H96       1.0  0.5437547962991621  0.10012700903647576  0.36420542592537536  1.0000
  H   H97       1.0  0.5665396579163273  0.7769611206900467  0.6975387594125477  1.0000
  H   H98       1.0  0.2230388793951312  0.789578536670663  0.6975387594125477  1.0000
  H   H99       1.0  0.2104214630519571  0.43346034242696935  0.6975387594125477  1.0000
  H   H100      1.0  0.10675051994377656  0.08429300425029433  0.9842147616707042  1.0000
  H   H101      1.0  0.9157069955472616  0.02245751533234721  0.9842147616707042  1.0000
  H   H102      1.0  0.9775424846139924  0.8932494800335566  0.9842147616707042  1.0000
  H   H103      1.0  0.7734171868842236  0.4176263374556937  0.31754809553666075  1.0000
  H   H104      1.0  0.5823736623000567  0.35579084872284084  0.31754809553666075  1.0000
  H   H105      1.0  0.6442091509207505  0.22658281343766365  0.31754809553666075  1.0000
  H   H106      1.0  0.4400838529207083  0.7509596708461874  0.6508814281835319  1.0000
  H   H107      1.0  0.2490403290528517  0.6891241821133345  0.6508814281835319  1.0000
  H   H108      1.0  0.3108758176735454  0.5599161468281573  0.6508814281835319  1.0000
  C   C1        1.0  0.22892731481677464  0.2027951027869261  0.8231874995213898  1.0000
  C   C2        1.0  0.7972048972941949  0.026132211955483854  0.8231874995213898  1.0000
  C   C3        1.0  0.9738677879940613  0.7710726848737882  0.8231874995213898  1.0000
  C   C4        1.0  0.8955939817572217  0.5361284359923255  0.15652083338734632  1.0000
  C   C5        1.0  0.4638715640469898  0.35946554534597747  0.15652083338734632  1.0000
  C   C6        1.0  0.6405344543008191  0.10440601827789521  0.15652083338734632  1.0000
  C   C7        1.0  0.5622606485100166  0.869461769382819  0.4898541668745186  1.0000
  C   C8        1.0  0.1305382307997848  0.6927988787364711  0.4898541668745186  1.0000
  C   C9        1.0  0.30720112105361425  0.4377393516683889  0.4898541668745186  1.0000
  C   C10       1.0  0.3038731942346342  0.13593495362332086  0.6780907465716167  1.0000
  C   C11       1.0  0.8640650467578066  0.16793824099962756  0.6780907465716167  1.0000
  C   C12       1.0  0.8320617588098417  0.6961268058203738  0.6780907465716167  1.0000
  C   C13       1.0  0.9705398611750813  0.46926828682872035  0.011424079597272156  1.0000
  C   C14       1.0  0.5307317135106016  0.5012715743901212  0.011424079597272156  1.0000
  C   C15       1.0  0.4987284258329099  0.029460139224480715  0.011424079597272156  1.0000
  C   C16       1.0  0.6372065279278761  0.8026016202192139  0.34475741308444446  1.0000
  C   C17       1.0  0.19739838026339648  0.8346049077806147  0.34475741308444446  1.0000
  C   C18       1.0  0.1653950925857049  0.3627934726149743  0.34475741308444446  1.0000
  C   C19       1.0  0.11388522623590323  0.08583459458183915  0.21735941067489412  1.0000
  C   C20       1.0  0.9141654055817682  0.02805063176218612  0.21735941067489412  1.0000
  C   C21       1.0  0.9719493687009213  0.886114774099297  0.21735941067489412  1.0000
  C   C22       1.0  0.7805518928736019  0.4191679286143625  0.5506927441620664  1.0000
  C   C23       1.0  0.5808320712046908  0.3613839643255558  0.5506927441620664  1.0000
  C   C24       1.0  0.6386160353104275  0.2194481066762799  0.5506927441620664  1.0000
  C   C25       1.0  0.4472185596263968  0.752501262004856  0.8840260776492387  1.0000
  C   C26       1.0  0.24749873795748584  0.6947172977160494  0.8840260776492387  1.0000
  C   C27       1.0  0.3052827020632226  0.5527814400667735  0.8840260776492387  1.0000
  C   C28       1.0  0.23055971257299993  0.24247628044626265  0.9408503266487991  1.0000
  C   C29       1.0  0.7575237193808881  0.9880834320431963  0.9408503266487991  1.0000
  C   C30       1.0  0.01191656769321721  0.7694402872982202  0.9408503266487991  1.0000
  C   C31       1.0  0.8972263795134469  0.575809613651662  0.27418365967445457  1.0000
  C   C32       1.0  0.42419038640395645  0.32141676544730313  0.27418365967445457  1.0000
  C   C33       1.0  0.6785832341876272  0.10277362051723299  0.27418365967445457  1.0000
  C   C34       1.0  0.5638930462662418  0.9091429470421555  0.6075169931616268  1.0000
  C   C35       1.0  0.09085705244044114  0.6547500988377968  0.6075169931616268  1.0000
  C   C36       1.0  0.34524990094042224  0.4361069539077266  0.6075169931616268  1.0000
  C   C37       1.0  0.1438538389335059  0.18878284619130642  0.7501995611364901  1.0000
  C   C38       1.0  0.8112171542932611  0.9550709926234269  0.7501995611364901  1.0000
  C   C39       1.0  0.044929007550210696  0.8561461618000699  0.7501995611364901  1.0000
  C   C40       1.0  0.8105205051576426  0.5221161793967058  0.08353289500244662  1.0000
  C   C41       1.0  0.47788382060001905  0.28840432602753374  0.08353289500244662  1.0000
  C   C42       1.0  0.7115956740446205  0.18947949501908257  0.08353289500244662  1.0000
  C   C43       1.0  0.47718717191043747  0.8554495127871994  0.4168662284896189  1.0000
  C   C44       1.0  0.1445504873528141  0.6217376594180274  0.4168662284896189  1.0000
  C   C45       1.0  0.37826234079741566  0.5228128284095762  0.4168662284896189  1.0000
  C   C46       1.0  0.1393052652024411  0.14997894845923201  0.6416764980021558  1.0000
  C   C47       1.0  0.8500210511210837  0.98932631653711  0.6416764980021558  1.0000
  C   C48       1.0  0.010673683323580254  0.860694734791337  0.6416764980021558  1.0000
  C   C49       1.0  0.8059719318401398  0.48331228249175534  0.9750098314893282  1.0000
  C   C50       1.0  0.5166877181441523  0.32265964994121704  0.9750098314893282  1.0000
  C   C51       1.0  0.6773403505343006  0.19402806801034975  0.9750098314893282  1.0000
  C   C52       1.0  0.47263859859293467  0.8166456158822488  0.3083431645149835  1.0000
  C   C53       1.0  0.18335438489694722  0.6559929833317106  0.3083431645149835  1.0000
  C   C54       1.0  0.3440070165707853  0.5273614014008433  0.3083431645149835  1.0000
  C   C55       1.0  0.22062674675303123  0.1266919888978142  0.6059721903964356  1.0000
  C   C56       1.0  0.8733080103220175  0.09393475730602618  0.6059721903964356  1.0000
  C   C57       1.0  0.9060652423136718  0.7793732534123579  0.6059721903964356  1.0000
  C   C58       1.0  0.8872934133907298  0.4600253229303375  0.9393055238836079  1.0000
  C   C59       1.0  0.5399746770748124  0.4272680906965198  0.9393055238836079  1.0000
  C   C60       1.0  0.5727319093367401  0.11270658681646481  0.9393055238836079  1.0000
  C   C61       1.0  0.5539600797299629  0.7933586554937071  0.2726388569092633  1.0000
  C   C62       1.0  0.20664134382760738  0.7606014240870134  0.2726388569092633  1.0000
  C   C63       1.0  0.239398576089535  0.4460399202069584  0.2726388569092633  1.0000
  C   C64       1.0  0.15787388186866888  0.17954359366057734  0.13153716162303292  1.0000
  C   C65       1.0  0.8204564063733383  0.9783302882550424  0.13153716162303292  1.0000
  C   C66       1.0  0.021669712121408453  0.8421261178720593  0.13153716162303292  1.0000
  C   C67       1.0  0.8245405480928055  0.5128769268659766  0.46487049511020523  1.0000
  C   C68       1.0  0.4871230726800963  0.31166362165914946  0.46487049511020523  1.0000
  C   C69       1.0  0.6883363786158185  0.17545945109107203  0.46487049511020523  1.0000
  C   C70       1.0  0.49120721484560054  0.8462102602564704  0.7982038285973776  1.0000
  C   C71       1.0  0.1537897394328913  0.644996955049643  0.7982038285973776  1.0000
  C   C72       1.0  0.3550030453686135  0.5087927844815656  0.7982038285973776  1.0000
  C   C73       1.0  0.30641978783750884  0.17342632556357565  0.7872118208865285  1.0000
  C   C74       1.0  0.8265736738012573  0.13299346212059254  0.7872118208865285  1.0000
  C   C75       1.0  0.8670065377499542  0.69358021193203  0.7872118208865285  1.0000
  C   C76       1.0  0.9730864547779559  0.5067596587689751  0.120545153912184  1.0000
  C   C77       1.0  0.4932403405540523  0.46632679551108613  0.120545153912184  1.0000
  C   C78       1.0  0.5336732040567123  0.026913545336136976  0.120545153912184  1.0000
  C   C79       1.0  0.6397531215307508  0.8400929921594686  0.45387848739935627  1.0000
  C   C80       1.0  0.1599070073068473  0.7996601289015798  0.45387848739935627  1.0000
  C   C81       1.0  0.20033987080950721  0.36024687872663064  0.45387848739935627  1.0000
  N   N1        1.0  0.18234305942701232  0.14682107192241314  0.021349220061768894  1.0000
  N   N2        1.0  0.853178927866876  0.03552198703064791  0.021349220061768894  1.0000
  N   N3        1.0  0.9644780128111425  0.8176569406631372  0.021349220061768894  1.0000
  N   N4        1.0  0.8490097256511491  0.4801544051278125  0.3546825527086401  1.0000
  N   N5        1.0  0.519845594619671  0.3688553204211415  0.3546825527086401  1.0000
  N   N6        1.0  0.6311446798342109  0.15099027406724413  0.3546825527086401  1.0000
  N   N7        1.0  0.5156763924039439  0.813487738518306  0.6880158861958124  1.0000
  N   N8        1.0  0.18651226137246582  0.702188653811635  0.6880158861958124  1.0000
  N   N9        1.0  0.2978113465870058  0.4843236074577378  0.6880158861958124  1.0000
  N   N10       1.0  0.0  0.0  0.20132401593606172  1.0000
  N   N11       1.0  0.6666666669404471  0.3333333332053993  0.534657349423234  1.0000
  N   N12       1.0  0.3333333329769317  0.666666666595893  0.8679906829104063  1.0000
  F   F1        1.0  0.0  0.0  0.932398264211339  1.0000
  F   F2        1.0  0.6666666669404471  0.3333333332053993  0.2657315972369943  1.0000
  F   F3        1.0  0.3333333329769317  0.666666666595893  0.5990649307241667  1.0000
  F   F4        1.0  0.05662114034564492  0.32678740928366773  0.8866333411219696  1.0000
  F   F5        1.0  0.673212591389207  0.7298337315338692  0.8866333411219696  1.0000
  F   F6        1.0  0.27016626904212565  0.943378859797266  0.8866333411219696  1.0000
  F   F7        1.0  0.7232878065697815  0.660120742489067  0.21996667498792605  1.0000
  F   F8        1.0  0.339879257695965  0.0631670649379762  0.21996667498792605  1.0000
  F   F9        1.0  0.9368329355365358  0.2767121930162788  0.21996667498792605  1.0000
  F   F10       1.0  0.38995447332257654  0.9934540758795607  0.5533000084750984  1.0000
  F   F11       1.0  0.006545924035198019  0.39650039750134586  0.5533000084750984  1.0000
  F   F12       1.0  0.6034996022893307  0.6100455264067725  0.5533000084750984  1.0000
  F   F13       1.0  0.0781933312221558  0.38584077631388736  0.7170722291917236  1.0000
  F   F14       1.0  0.6141592238597523  0.6923525555143824  0.7170722291917236  1.0000
  F   F15       1.0  0.3076474449787591  0.9218066687865333  0.7170722291917236  1.0000
  F   F16       1.0  0.744859998162603  0.7191741095192868  0.05040556305768016  1.0000
  F   F17       1.0  0.28082589088282073  0.025685888918489448  0.05040556305768016  1.0000
  F   F18       1.0  0.9743141114731692  0.25514000200554593  0.05040556305768016  1.0000
  F   F19       1.0  0.41152666446936076  0.05250744292339375  0.3837388965448525  1.0000
  F   F20       1.0  0.9474925571069573  0.3590192221238888  0.3837388965448525  1.0000
  F   F21       1.0  0.6409807782259641  0.5884733353960395  0.3837388965448525  1.0000
  Cl  Cl1       1.0  0.2155589810361688  0.08184646842186132  0.469465973937795  1.0000
  Cl  Cl2       1.0  0.9181535312542901  0.1337125124679739  0.469465973937795  1.0000
  Cl  Cl3       1.0  0.8662874870982615  0.784441018726363  0.469465973937795  1.0000
  Cl  Cl4       1.0  0.8822256479766158  0.41517980162726076  0.8027993065846663  1.0000
  Cl  Cl5       1.0  0.5848201980070851  0.46704584585846753  0.8027993065846663  1.0000
  Cl  Cl6       1.0  0.5329541541213298  0.11777435213046998  0.8027993065846663  1.0000
  Cl  Cl7       1.0  0.5488923147294108  0.7485131350177544  0.13613264045062268  1.0000
  Cl  Cl8       1.0  0.25148686475988  0.8003791792489612  0.13613264045062268  1.0000
  Cl  Cl9       1.0  0.19962082087412486  0.45110768552096364  0.13613264045062268  1.0000
