data_image0
_chemical_formula_structural       H36C36N4O24
_chemical_formula_sum              "H36 C36 N4 O24"
_cell_length_a       5.32137176308913
_cell_length_b       22.873959167330007
_cell_length_c       7.759282399229436
_cell_angle_alpha    90.0
_cell_angle_beta     91.93383657840793
_cell_angle_gamma    90.0

_space_group_name_H-M_alt    "P 1"
_space_group_IT_number       1

loop_
  _space_group_symop_operation_xyz
  'x, y, z'

loop_
  _atom_site_type_symbol
  _atom_site_label
  _atom_site_symmetry_multiplicity
  _atom_site_fract_x
  _atom_site_fract_y
  _atom_site_fract_z
  _atom_site_occupancy
  H   H1        1.0  0.29968861299479915  0.4106896117667827  0.08356245471516256  1.0000
  H   H2        1.0  0.29968861369389965  0.0893103880729913  0.583562455387602  1.0000
  H   H3        1.0  0.7003113877381465  0.5893103883499436  0.9164375452779517  1.0000
  H   H4        1.0  0.700311387039046  0.910689612043735  0.4164375446055123  1.0000
  H   H5        1.0  0.18430655874247442  0.4833158802604634  0.11689501823333694  1.0000
  H   H6        1.0  0.18430655756138503  0.016684120016488883  0.6168950188752698  1.0000
  H   H7        1.0  0.8156934419904712  0.5166841198562628  0.8831049817597774  1.0000
  H   H8        1.0  0.8156934412913709  0.9833158801002373  0.38310498108733787  1.0000
  H   H9        1.0  0.26143108997034004  0.5553345123629833  0.8855700776785996  1.0000
  H   H10       1.0  0.2614310892902156  0.944665487593517  0.3855700782953127  1.0000
  H   H11       1.0  0.7385689107626056  0.44466548775374304  0.11442992231451461  1.0000
  H   H12       1.0  0.7385689095625402  0.055334512086030914  0.614429921667295  1.0000
  H   H13       1.0  0.43178611295439007  0.5294012077845943  0.7040132328022717  1.0000
  H   H14       1.0  0.4317861141544554  0.9705987926090843  0.20401323344949127  1.0000
  H   H15       1.0  0.5682138858983657  0.470598792332132  0.295986767160336  1.0000
  H   H16       1.0  0.5682138865784901  0.02940120750764202  0.795986766543623  1.0000
  H   H17       1.0  0.38652637418405295  0.32391716299740414  0.3029673151309811  1.0000
  H   H18       1.0  0.38652637488315333  0.17608283684236986  0.8029673158034205  1.0000
  H   H19       1.0  0.6134736246687029  0.6760828371193222  0.6970326848316267  1.0000
  H   H20       1.0  0.6134736258497924  0.8239171628371781  0.19703268418969377  1.0000
  H   H21       1.0  0.6291689722486775  0.28132760415131675  0.6415056920095943  1.0000
  H   H22       1.0  0.6291689715495771  0.2186723956884572  0.14150569133715482  1.0000
  H   H23       1.0  0.37083102848426813  0.7186723959654095  0.35849430798352006  1.0000
  H   H24       1.0  0.37083102918336863  0.7813276044282691  0.8584943086559595  1.0000
  H   H25       1.0  0.2509205371567085  0.22072432249555915  0.34903938108926036  1.0000
  H   H26       1.0  0.25092053595664315  0.2792756773442148  0.8490393804420406  1.0000
  H   H27       1.0  0.7490794635762371  0.7792756776211672  0.6509606189038538  1.0000
  H   H28       1.0  0.7490794628961126  0.7207243223353331  0.15096061952056697  1.0000
  H   H29       1.0  0.47093950252083955  0.41905383453208594  0.7816437706643116  1.0000
  H   H30       1.0  0.4709395018407149  0.080946165307688  0.2816437712810247  1.0000
  H   H31       1.0  0.5290604982121062  0.5809461655846403  0.2183562293288026  1.0000
  H   H32       1.0  0.5290604970120408  0.9190538343718598  0.718356228681583  1.0000
  H   H33       1.0  0.04261210294298605  0.44130850440694785  0.48619223808092227  1.0000
  H   H34       1.0  0.042612103623110555  0.058691495432826105  0.9861922374642091  1.0000
  H   H35       1.0  0.9573878959097697  0.5586914957097784  0.5138077618816855  1.0000
  H   H36       1.0  0.9573878971098352  0.9413085042467219  0.01380776252890508  1.0000
  C   C1        1.0  0.33893814796600913  0.45719067580291983  0.06616545543859316  1.0000
  C   C2        1.0  0.33893814678491974  0.042809324474032476  0.566165456080526  1.0000
  C   C3        1.0  0.6610618527669366  0.5428093243138065  0.9338345445545212  1.0000
  C   C4        1.0  0.6610618520678361  0.9571906756426938  0.43383454388208165  1.0000
  C   C5        1.0  0.4140824565990009  0.5265648702041433  0.8440551184696694  1.0000
  C   C6        1.0  0.4140824577990662  0.9734351297523569  0.34405511911688896  1.0000
  C   C7        1.0  0.5859175422537549  0.47343512991258296  0.15594488149293842  1.0000
  C   C8        1.0  0.5859175429338793  0.02656487036436937  0.6559448808762254  1.0000
  C   C9        1.0  0.22171453320115767  0.31415227103593646  0.3767761153074983  1.0000
  C   C10       1.0  0.2217145339002581  0.18584772880383751  0.8767761159799378  1.0000
  C   C11       1.0  0.7782854656515982  0.6858477286436114  0.6232238846551095  1.0000
  C   C12       1.0  0.7782854668326875  0.8141522713128888  0.12322388401317648  1.0000
  C   C13       1.0  0.7362698952119281  0.3978283931273713  0.6253445676639756  1.0000
  C   C14       1.0  0.7362698945128276  0.1021716067124027  0.12534456699153623  1.0000
  C   C15       1.0  0.26373010552101755  0.602171606989355  0.37465543232913856  1.0000
  C   C16       1.0  0.26373010433992816  0.8978283929671452  0.8746554329710716  1.0000
  C   C17       1.0  0.7934312928877542  0.29108840805792185  0.5673732476173985  1.0000
  C   C18       1.0  0.7934312921886538  0.20891159221903044  0.06737324694495896  1.0000
  C   C19       1.0  0.20656870784519135  0.7089115920588045  0.4326267523757159  1.0000
  C   C20       1.0  0.20656870854429182  0.7910884078976959  0.9326267530481552  1.0000
  C   C21       1.0  0.869788212678237  0.34871078380660825  0.5458502481056763  1.0000
  C   C22       1.0  0.8697882138593266  0.15128921647034405  0.045850247463743374  1.0000
  C   C23       1.0  0.13021178617451876  0.651289216310118  0.4541497518569314  1.0000
  C   C24       1.0  0.13021178687361917  0.8487107836463823  0.9541497525293708  1.0000
  C   C25       1.0  0.9300995100086364  0.24588741978840026  0.4952235508438502  1.0000
  C   C26       1.0  0.9300995088085712  0.2541125800513737  0.9952235501966307  1.0000
  C   C27       1.0  0.06990049072430912  0.7541125798911477  0.5047764491492641  1.0000
  C   C28       1.0  0.06990049004418462  0.7458874200653526  0.0047764497659771  1.0000
  C   C29       1.0  0.14593744190981955  0.2571425740936377  0.40109655648397585  1.0000
  C   C30       1.0  0.14593744072873016  0.24285742618331463  0.9010965571259089  1.0000
  C   C31       1.0  0.8540625588231261  0.7428574260230886  0.5989034435091384  1.0000
  C   C32       1.0  0.8540625581240257  0.7571425739334117  0.09890344283669898  1.0000
  C   C33       1.0  0.08557157423337476  0.360700959971289  0.44782733686052856  1.0000
  C   C34       1.0  0.0855715749324752  0.13929904030566334  0.9478273375329681  1.0000
  C   C35       1.0  0.914428424619381  0.6392990401454373  0.5521726631020791  1.0000
  C   C36       1.0  0.9144284258004703  0.860700959811063  0.05217266246014627  1.0000
  N   N1        1.0  0.85263125029182  0.18620684853207992  0.5224161821312404  1.0000
  N   N2        1.0  0.8526312495927194  0.3137931517448724  0.022416181458800907  1.0000
  N   N3        1.0  0.14736875044112574  0.8137931515846463  0.4775838178618739  1.0000
  N   N4        1.0  0.14736875114022618  0.686206848371854  0.9775838185343133  1.0000
  O   O1        1.0  0.34669467781030394  0.4666975625823013  0.8818467102230187  1.0000
  O   O2        1.0  0.3466946771112035  0.0333024372574727  0.38184670955057937  1.0000
  O   O3        1.0  0.6533053229226418  0.533302437534425  0.11815328977009547  1.0000
  O   O4        1.0  0.6533053217415523  0.9666975624220752  0.6181532904120283  1.0000
  O   O5        1.0  0.5467572393213161  0.3828946128621741  0.7209065568176996  1.0000
  O   O6        1.0  0.5467572386411917  0.11710538697759992  0.22090655743441273  1.0000
  O   O7        1.0  0.45324275953143955  0.6171053872545522  0.279093443144908  1.0000
  O   O8        1.0  0.4532427602115642  0.882894612701948  0.779093442528195  1.0000
  O   O9        1.0  0.16403373756572243  0.41515156648364565  0.42243710220904107  1.0000
  O   O10       1.0  0.164033736384633  0.0848484333561283  0.922437102850974  1.0000
  O   O11       1.0  0.8359662631672231  0.5848484336330806  0.5775628977840731  1.0000
  O   O12       1.0  0.8359662624681228  0.9151515663234197  0.07756289711163375  1.0000
  O   O13       1.0  0.9848334738079185  0.14614595774808356  0.4654174681467923  1.0000
  O   O14       1.0  0.9848334726078531  0.3538540420916904  0.9654174674995727  1.0000
  O   O15       1.0  0.015166526925027147  0.8538540423686427  0.534582531846322  1.0000
  O   O16       1.0  0.015166526244902643  0.6461459575878575  0.034582532463035  1.0000
  O   O17       1.0  0.8033702308201676  0.4496145155618229  0.6015247170070837  1.0000
  O   O18       1.0  0.8033702320202328  0.05038548471512939  0.10152471765430318  1.0000
  O   O19       1.0  0.19662976803258836  0.5503854845549033  0.39847528295552415  1.0000
  O   O20       1.0  0.19662976871271287  0.9496145154015969  0.898475282338811  1.0000
  O   O21       1.0  0.6565532846043299  0.17730000916467445  0.6025704135281632  1.0000
  O   O22       1.0  0.6565532839052296  0.3226999906750995  0.10257041285572378  1.0000
  O   O23       1.0  0.34344671612861566  0.8226999905148734  0.3974295864649511  1.0000
  O   O24       1.0  0.3434467168277161  0.6773000094416268  0.8974295871373906  1.0000
