data_image0
_chemical_formula_structural       H22C20N10O6S4
_chemical_formula_sum              "H22 C20 N10 O6 S4"
_cell_length_a       7.063392449204255
_cell_length_b       10.305490248444956
_cell_length_c       10.437111801280663
_cell_angle_alpha    115.05792181189958
_cell_angle_beta     101.2608681320125
_cell_angle_gamma    102.43558759107208

_space_group_name_H-M_alt    "P 1"
_space_group_IT_number       1

loop_
  _space_group_symop_operation_xyz
  'x, y, z'

loop_
  _atom_site_type_symbol
  _atom_site_label
  _atom_site_symmetry_multiplicity
  _atom_site_fract_x
  _atom_site_fract_y
  _atom_site_fract_z
  _atom_site_occupancy
  H   H1        1.0  0.6904383455544336  0.14187990859533875  0.3967362673679253  1.0000
  H   H2        1.0  0.30956165514972017  0.8581200921591043  0.6032637339120026  1.0000
  H   H3        1.0  0.7248008419459478  0.9989396349027282  0.44524651951365796  1.0000
  H   H4        1.0  0.27519915680368545  0.001060364721350881  0.5547534800714921  1.0000
  H   H5        1.0  0.672639086490607  0.5934331884880607  0.7788331786763136  1.0000
  H   H6        1.0  0.3273609137029046  0.4065668111367654  0.2211668210993746  1.0000
  H   H7        1.0  0.7785468065141826  0.8444239481913227  0.8641817234667263  1.0000
  H   H8        1.0  0.2214531922354507  0.15557605143275646  0.13581827611842373  1.0000
  H   H9        1.0  0.5708623425330556  0.8903369300600281  0.9221476405159624  1.0000
  H   H10       1.0  0.4291376562141143  0.1096630695566235  0.07785236002385461  1.0000
  H   H11       1.0  0.6341865363520325  0.9290918648464975  0.7823753523174967  1.0000
  H   H12       1.0  0.3658134623976009  0.07090813477758157  0.2176246472676533  1.0000
  H   H13       1.0  0.19977404418371245  0.6207575003424834  0.28581910215462636  1.0000
  H   H14       1.0  0.8002259560097991  0.3792424992823427  0.7141808976210618  1.0000
  H   H15       1.0  0.8743203561876036  0.6601720521701047  0.2038868507908648  1.0000
  H   H16       1.0  0.12567964400590784  0.3398279474547215  0.7961131489848233  1.0000
  H   H17       1.0  0.619542708439428  0.17768180974204337  0.8891242718147199  1.0000
  H   H18       1.0  0.3804572908233114  0.8223181910190803  0.11087572832000255  1.0000
  H   H19       1.0  0.3984244311046953  0.32661517945233404  0.8975858902083396  1.0000
  H   H20       1.0  0.6015755690888162  0.6733848201724921  0.10241410956734856  1.0000
  H   H21       1.0  0.9586949529722376  0.1594849110340989  0.9867819731059756  1.0000
  H   H22       1.0  0.04130504773437999  0.8405150897277718  0.01321802721928513  1.0000
  C   C1        1.0  0.13312341634317892  0.19449321014274026  0.4420559878298146  1.0000
  C   C2        1.0  0.8668765838503325  0.8055067894820859  0.5579440119458735  1.0000
  C   C3        1.0  0.3926467966183092  0.42821824646543966  0.6160490740134008  1.0000
  C   C4        1.0  0.6073532026419666  0.5717817542882564  0.3839509270759888  1.0000
  C   C5        1.0  0.47668774342917514  0.6962763429134294  0.7080263020694674  1.0000
  C   C6        1.0  0.5233122558335641  0.30372365784769423  0.2919736980652552  1.0000
  C   C7        1.0  0.6258234721665273  0.8488551930847652  0.8256300801178977  1.0000
  C   C8        1.0  0.3741765285376265  0.15114480766967792  0.1743699211620303  1.0000
  C   C9        1.0  0.0657195347491019  0.5252454365341194  0.1994441776518755  1.0000
  C   C10       1.0  0.9342804659575156  0.4747545642277514  0.8005558226733854  1.0000
  C   C11       1.0  0.8827875495627221  0.5460664128352438  0.15272707595543225  1.0000
  C   C12       1.0  0.11721244918691132  0.4539335867888352  0.8472729236297177  1.0000
  C   C13       1.0  0.7148657934638033  0.420804304805517  0.03844838681474143  1.0000
  C   C14       1.0  0.28513420528583006  0.579195694818562  0.9615516127704085  1.0000
  C   C15       1.0  0.743620022504345  0.27859938372494625  0.9790546801405093  1.0000
  C   C16       1.0  0.2563799762452885  0.721400615899133  0.020945319444640717  1.0000
  C   C17       1.0  0.5192984277144974  0.4338450192277925  0.9802401125720804  1.0000
  C   C18       1.0  0.48070157247901407  0.5661549803970336  0.019759887203607742  1.0000
  C   C19       1.0  0.9328588332577753  0.26818461956548656  0.03271943008802665  1.0000
  C   C20       1.0  0.06714116693573616  0.7318153800593395  0.9672805696876614  1.0000
  N   N1        1.0  0.7264642282824288  0.04406715642754188  0.3736027430855522  1.0000
  N   N2        1.0  0.2735357709803105  0.9559328443335816  0.6263972570491703  1.0000
  N   N3        1.0  0.2887784781849118  0.17647616042608585  0.5166835879816251  1.0000
  N   N4        1.0  0.7112215225217057  0.8235238403357847  0.4833164123436357  1.0000
  N   N5        1.0  0.43916817837141015  0.31061451607627205  0.6176637027195707  1.0000
  N   N6        1.0  0.5608318203782232  0.689385483547807  0.3823362968655793  1.0000
  N   N7        1.0  0.5212349207801715  0.5743166391918266  0.7098827338807022  1.0000
  N   N8        1.0  0.4787650794133399  0.42568336043299937  0.290117265894986  1.0000
  N   N9        1.0  0.0927199566964479  0.3889308910723078  0.14096365259680696  1.0000
  N   N10       1.0  0.9072800434970636  0.6110691085525184  0.8590363471788812  1.0000
  O   O1        1.0  0.8656356866083811  0.06342443877233818  0.18008759399140825  1.0000
  O   O2        1.0  0.13436431358513046  0.936575560852488  0.8199124057842799  1.0000
  O   O3        1.0  0.9607315217231783  0.9029303999873161  0.29021442501789085  1.0000
  O   O4        1.0  0.039268477539561114  0.09706960077380766  0.7097855751168317  1.0000
  O   O5        1.0  0.3189082092736083  0.6788797329233454  0.6150673259898644  1.0000
  O   O6        1.0  0.6810917909199031  0.32112026670148086  0.38493267378582374  1.0000
  S   S1        1.0  0.1573756273592484  0.3808026954007742  0.48764852333979597  1.0000
  S   S2        1.0  0.8426243719034909  0.6191973053603494  0.5123514767949265  1.0000
  S   S3        1.0  0.9127357636146345  0.03709537745321567  0.3061245005295713  1.0000
  S   S4        1.0  0.08726423513499892  0.9629046221708634  0.6938754990555785  1.0000
