data_image0
_chemical_formula_structural       H24C20N10O6S4
_chemical_formula_sum              "H24 C20 N10 O6 S4"
_cell_length_a       6.8816936704950455
_cell_length_b       10.257996143692463
_cell_length_c       10.706908040221863
_cell_angle_alpha    114.97238302706518
_cell_angle_beta     99.06351671507869
_cell_angle_gamma    103.46696917524531

_space_group_name_H-M_alt    "P 1"
_space_group_IT_number       1

loop_
  _space_group_symop_operation_xyz
  'x, y, z'

loop_
  _atom_site_type_symbol
  _atom_site_label
  _atom_site_symmetry_multiplicity
  _atom_site_fract_x
  _atom_site_fract_y
  _atom_site_fract_z
  _atom_site_occupancy
  H   H1        1.0  0.6885612551932316  0.1388058091827453  0.3910385668306641  1.0000
  H   H2        1.0  0.31143874483394884  0.8611941904428382  0.6089614334447221  1.0000
  H   H3        1.0  0.7189133869517843  0.0030538455479880437  0.44851555932139  1.0000
  H   H4        1.0  0.28108661307463956  0.9969461540834342  0.5514844400223198  1.0000
  H   H5        1.0  0.6743450234159779  0.592518851154696  0.7719136925023719  1.0000
  H   H6        1.0  0.3256549771318032  0.4074811496178053  0.2280863073604495  1.0000
  H   H7        1.0  0.563167211544439  0.8748689712670562  0.9298725013353434  1.0000
  H   H8        1.0  0.4368327890040986  0.1251310294996063  0.07012749945915446  1.0000
  H   H9        1.0  0.6084519887860582  0.9369110267249953  0.8020550430256133  1.0000
  H   H10       1.0  0.3915480102906761  0.06308897404100247  0.19794495762176997  1.0000
  H   H11       1.0  0.7751638169060721  0.8491980592324426  0.8578709413006501  1.0000
  H   H12       1.0  0.22483618364170893  0.15080194154005874  0.1421290585621712  1.0000
  H   H13       1.0  0.18521162677031325  0.6196692831768446  0.2884531929333084  1.0000
  H   H14       1.0  0.8147883732561106  0.3803307164545779  0.7115468064104015  1.0000
  H   H15       1.0  0.8556153517617042  0.6511330140461866  0.19671643256427127  1.0000
  H   H16       1.0  0.14438464826547617  0.3488669855793969  0.8032835677111151  1.0000
  H   H17       1.0  0.6357903611575939  0.17232952778401642  0.8853642834066158  1.0000
  H   H18       1.0  0.36420963939018713  0.8276704729884851  0.11463571645620552  1.0000
  H   H19       1.0  0.976661835302736  0.16053254646762033  0.9921686793775231  1.0000
  H   H20       1.0  0.023338164724444513  0.8394674531579632  0.007831320897863226  1.0000
  H   H21       1.0  0.38113081511445746  0.34192073132857503  0.9784408895381307  1.0000
  H   H22       1.0  0.6188691854340802  0.6580792694380875  0.021559111256367093  1.0000
  H   H23       1.0  0.48822423935880266  0.3735301579246275  0.851718081246905  1.0000
  H   H24       1.0  0.5117757606676212  0.6264698417067948  0.14828191809680472  1.0000
  C   C1        1.0  0.14042569384796313  0.1912198988752133  0.4391789793831055  1.0000
  C   C2        1.0  0.8595743061784608  0.8087801007562091  0.5608210199606042  1.0000
  C   C3        1.0  0.3962158179840622  0.4268387221798457  0.6105547795213154  1.0000
  C   C4        1.0  0.6037841820431185  0.573161277445738  0.3894452207540708  1.0000
  C   C5        1.0  0.4690286575001069  0.6967348807389013  0.7137166987993968  1.0000
  C   C6        1.0  0.530971342526317  0.303265118892521  0.28628330054431295  1.0000
  C   C7        1.0  0.6143837792897905  0.8483872054761411  0.8323722450949831  1.0000
  C   C8        1.0  0.3856162212579906  0.15161279529636035  0.16762775476783826  1.0000
  C   C9        1.0  0.05712701539062533  0.5224655284494835  0.20077595574121093  1.0000
  C   C10       1.0  0.9428729846357985  0.47753447118193876  0.7992240436024988  1.0000
  C   C11       1.0  0.8710884640106658  0.5386753254210288  0.14852600774375183  1.0000
  C   C12       1.0  0.12891153601651495  0.46132467420455475  0.8514739925316345  1.0000
  C   C13       1.0  0.7127401134331733  0.41237280691731815  0.03373856873959675  1.0000
  C   C14       1.0  0.2872598871146077  0.5876271938551834  0.9662614311232246  1.0000
  C   C15       1.0  0.7521702611482654  0.2735882058283077  0.9772381355037402  1.0000
  C   C16       1.0  0.24782973740711187  0.726411793796611  0.022761864624531312  1.0000
  C   C17       1.0  0.9420338935755093  0.2667168588817207  0.035654755137279046  1.0000
  C   C18       1.0  0.05796610645167126  0.7332831407438628  0.9643452451381074  1.0000
  C   C19       1.0  0.5092458801758687  0.4206845316977176  0.9682690966740986  1.0000
  C   C20       1.0  0.4907541203719124  0.5793154690747838  0.031730903188722716  1.0000
  N   N1        1.0  0.7237971246699835  0.04113035054342561  0.37341441033474637  1.0000
  N   N2        1.0  0.2762028758777976  0.9588696502290757  0.6265855895280749  1.0000
  N   N3        1.0  0.30119603632184927  0.17363191356191826  0.5062166326281844  1.0000
  N   N4        1.0  0.6988039642259318  0.8263680872105832  0.4937833672346369  1.0000
  N   N5        1.0  0.4495530819783354  0.3085853359612376  0.6051322344131776  1.0000
  N   N6        1.0  0.5504469180480884  0.6914146636701848  0.3948677649305321  1.0000
  N   N7        1.0  0.5205909612658989  0.5732789137469946  0.7063417993951768  1.0000
  N   N8        1.0  0.4794090387612816  0.42672108587858887  0.29365820088020944  1.0000
  N   N9        1.0  0.09394440684437735  0.389347780825036  0.14613319802185976  1.0000
  N   N10       1.0  0.9060555917109998  0.6106522187998826  0.8538668021064117  1.0000
  O   O1        1.0  0.8798310606667084  0.0503189462838515  0.18326854692503522  1.0000
  O   O2        1.0  0.12016893936047231  0.9496810533417321  0.8167314533503511  1.0000
  O   O3        1.0  0.9681639478963464  0.8987080916247  0.30246072390332707  1.0000
  O   O4        1.0  0.03183605213083416  0.10129190800088346  0.6975392763720593  1.0000
  O   O5        1.0  0.30927932412586756  0.6811950182577524  0.6276818645461278  1.0000
  O   O6        1.0  0.6907206759005563  0.31880498137367  0.3723181347975818  1.0000
  S   S1        1.0  0.1568474089394546  0.37893982698869594  0.4911556644505945  1.0000
  S   S2        1.0  0.8431525910869693  0.6210601726427264  0.5088443348931152  1.0000
  S   S3        1.0  0.9201373571148898  0.030793112402319776  0.30974085004903573  1.0000
  S   S4        1.0  0.07986264291229075  0.9692068872232638  0.6902591502263505  1.0000
