data_image0
_chemical_formula_structural       H40C34N12O6S4
_chemical_formula_sum              "H40 C34 N12 O6 S4"
_cell_length_a       7.334669930011204
_cell_length_b       8.535883604099505
_cell_length_c       16.30621330650469
_cell_angle_alpha    82.04184929146359
_cell_angle_beta     78.33524898902117
_cell_angle_gamma    78.71912821398298

_space_group_name_H-M_alt    "P 1"
_space_group_IT_number       1

loop_
  _space_group_symop_operation_xyz
  'x, y, z'

loop_
  _atom_site_type_symbol
  _atom_site_label
  _atom_site_symmetry_multiplicity
  _atom_site_fract_x
  _atom_site_fract_y
  _atom_site_fract_z
  _atom_site_occupancy
  H   H1        1.0  0.746821754813741  0.40472775916429726  0.5141086136290398  1.0000
  H   H2        1.0  0.25317824521710736  0.5952722400409812  0.4858913869203865  1.0000
  H   H3        1.0  0.4450732837426769  0.05991548737978663  0.7456366467167724  1.0000
  H   H4        1.0  0.5549267162906928  0.9400845118293473  0.25436335321888687  1.0000
  H   H5        1.0  0.48109730187343475  0.9158797742905225  0.8359037463350235  1.0000
  H   H6        1.0  0.518902699305271  0.08412022612143888  0.16409625341272463  1.0000
  H   H7        1.0  0.7189592785408064  0.12367296570790029  0.5023023628101012  1.0000
  H   H8        1.0  0.2810407228843212  0.8763270335030796  0.49769763700031067  1.0000
  H   H9        1.0  0.6915690297437469  0.9940291972867362  0.5977493086784851  1.0000
  H   H10       1.0  0.3084309700432007  0.005970803123379179  0.4022506911945104  1.0000
  H   H11       1.0  0.893131092771126  0.09359159242249639  0.5679676127663764  1.0000
  H   H12       1.0  0.10686890726224349  0.9064084067866376  0.43203238716928294  1.0000
  H   H13       1.0  0.8151594237648702  0.675296745551992  0.4364412316653717  1.0000
  H   H14       1.0  0.18484057602207732  0.32470325485812324  0.5635587682076237  1.0000
  H   H15       1.0  0.9921766323067956  0.7587584267528363  0.2942665396498833  1.0000
  H   H16       1.0  0.007823367480151765  0.24124157365727913  0.7057334602231122  1.0000
  H   H17       1.0  0.15093058149581579  0.25495412233892933  0.25645830107882  1.0000
  H   H18       1.0  0.8490694185350327  0.7450458768663493  0.7435416994706063  1.0000
  H   H19       1.0  0.9702020207550792  0.1943551491200609  0.39945257875186685  1.0000
  H   H20       1.0  0.029797979278290164  0.8056448500890732  0.6005474211837925  1.0000
  H   H21       1.0  0.30975085045695055  0.45746722533336437  0.15814141599830422  1.0000
  H   H22       1.0  0.6902491493299969  0.542532775076751  0.8418585838746913  1.0000
  H   H23       1.0  0.24655035081687737  0.6652093936765751  0.17226221351222273  1.0000
  H   H24       1.0  0.7534496492164922  0.334790605532559  0.8277377864234365  1.0000
  H   H25       1.0  0.14380379613674657  0.5925751403944478  0.0460811852244116  1.0000
  H   H26       1.0  0.856196203650201  0.4074248600156676  0.953918814648584  1.0000
  H   H27       1.0  0.9973277805661149  0.4681672358698171  0.11289143072061464  1.0000
  H   H28       1.0  0.0026722194672543884  0.531832763339317  0.8871085692150448  1.0000
  H   H29       1.0  0.8031302976303036  0.7011487616944333  0.18215777002620567  1.0000
  H   H30       1.0  0.19686970215664404  0.298851238715682  0.8178422298467898  1.0000
  H   H31       1.0  0.9632905714661516  0.827123092698705  0.1293616900643685  1.0000
  H   H32       1.0  0.036709428320795844  0.17287690771141037  0.870638309808627  1.0000
  H   H33       1.0  0.009631084908359018  0.8818582656921282  0.9682401539417045  1.0000
  H   H34       1.0  0.9903689148785885  0.1181417347179871  0.0317598459312909  1.0000
  H   H35       1.0  0.8305582338363967  0.9468269600594942  0.8504210722380872  1.0000
  H   H36       1.0  0.1694417661969727  0.05317303914963976  0.14957892769757222  1.0000
  H   H37       1.0  0.3930050566945681  0.7254424619552652  0.9862403653520033  1.0000
  H   H38       1.0  0.6069949430898584  0.2745575384509946  0.013759635134759057  1.0000
  H   H39       1.0  0.5545003500320298  0.6519886176865579  0.11154615993101753  1.0000
  H   H40       1.0  0.4454996497549177  0.34801138272355747  0.8884538399419779  1.0000
  C   C1        1.0  0.40224269160305537  0.7387360041120151  0.6905261225240347  1.0000
  C   C2        1.0  0.597757308183892  0.26126399629810027  0.3094738773489607  1.0000
  C   C3        1.0  0.5681394005189386  0.5293734940028036  0.6105026774164581  1.0000
  C   C4        1.0  0.4318605995144308  0.4706265052063303  0.38949732251920105  1.0000
  C   C5        1.0  0.6355211933260706  0.24340297336489822  0.6147898945078292  1.0000
  C   C6        1.0  0.364478806460877  0.7565970270452171  0.38521010536516637  1.0000
  C   C7        1.0  0.7412034466551908  0.10453900024696401  0.5677739563289689  1.0000
  C   C8        1.0  0.25879655476993685  0.8954609989640159  0.43222604348144317  1.0000
  C   C9        1.0  0.8947840982996517  0.5867946132877222  0.39424317675279297  1.0000
  C   C10       1.0  0.10521590148477479  0.41320538711853766  0.6057568237339696  1.0000
  C   C11       1.0  0.9937112704130975  0.6315174915826539  0.3150007878847425  1.0000
  C   C12       1.0  0.006288730765608219  0.3684825088293074  0.6849992118630056  1.0000
  C   C13       1.0  0.08968169775760078  0.5127725804023675  0.26271756490828674  1.0000
  C   C14       1.0  0.9103183020268257  0.4872274200038924  0.7372824355784758  1.0000
  C   C15       1.0  0.08128478093767554  0.35269550012567374  0.2942798806462719  1.0000
  C   C16       1.0  0.918715218849272  0.6473045002844416  0.7057201192267235  1.0000
  C   C17       1.0  0.9802198265332299  0.31815686508640767  0.37439734660291984  1.0000
  C   C18       1.0  0.019780173253717656  0.6818431353237077  0.6256026532700757  1.0000
  C   C19       1.0  0.18994970619949242  0.5539499959954972  0.1747908675491386  1.0000
  C   C20       1.0  0.8100502935874553  0.4460500044146181  0.8252091323238568  1.0000
  C   C21       1.0  0.05910540362470815  0.5769712857162637  0.10969227983375934  1.0000
  C   C22       1.0  0.9408945961622394  0.42302871469385167  0.8903077200392361  1.0000
  C   C23       1.0  0.9009736708647157  0.7230903462440892  0.12296059142195465  1.0000
  C   C24       1.0  0.09902632892223183  0.2769096541660262  0.8770394084510408  1.0000
  C   C25       1.0  0.7947473084962121  0.7644024419381604  0.05130710596888251  1.0000
  C   C26       1.0  0.2052526912882143  0.23559755846809935  0.9486928945178799  1.0000
  C   C27       1.0  0.8712549704422089  0.8476134299712729  0.9761646894593592  1.0000
  C   C28       1.0  0.12874502934221752  0.15238657043498705  0.023835311027403328  1.0000
  C   C29       1.0  0.7722076710491255  0.8831766424489815  0.9098357782564757  1.0000
  C   C30       1.0  0.2277923287378221  0.11682335796113386  0.0901642216165198  1.0000
  C   C31       1.0  0.5296735644305576  0.7588620183209377  0.985637863180138  1.0000
  C   C32       1.0  0.47032643535638996  0.24113798208917772  0.014362136692857632  1.0000
  C   C33       1.0  0.6199286844939916  0.7184485299001725  0.054925065762270395  1.0000
  C   C34       1.0  0.3800713155393778  0.28155146930896147  0.9450749341733888  1.0000
  N   N1        1.0  0.6542640134522668  0.3919567490985029  0.5749004024208133  1.0000
  N   N2        1.0  0.3457359863346808  0.6080432513116125  0.4250995974521821  1.0000
  N   N3        1.0  0.5839377562043215  0.673226315510055  0.5696369911310705  1.0000
  N   N4        1.0  0.41606224358262606  0.3267736849000603  0.4303630087419251  1.0000
  N   N5        1.0  0.4871510379781094  0.7934604612303824  0.6165705724306492  1.0000
  N   N6        1.0  0.5128489632005964  0.2065395391815789  0.38342942731709906  1.0000
  N   N7        1.0  0.39684969268848796  0.9716111337059322  0.7902710200410785  1.0000
  N   N8        1.0  0.6031503070959385  0.028388866700327683  0.20972898044568405  1.0000
  N   N9        1.0  0.8875980236460467  0.43257498618613  0.423902231230775  1.0000
  N   N10       1.0  0.1124019761409009  0.5674250142239854  0.5760977686422205  1.0000
  N   N11       1.0  0.6035803492541127  0.8404264739543201  0.9141402622790562  1.0000
  N   N12       1.0  0.39641965077925684  0.1595735252548139  0.08585973765660315  1.0000
  O   O1        1.0  0.5373804238282575  0.22801574206232164  0.6866791026014382  1.0000
  O   O2        1.0  0.46261957595869013  0.7719842583477937  0.3133208972715573  1.0000
  O   O3        1.0  0.21500568093687528  0.7530927408825361  0.8398321880966342  1.0000
  O   O4        1.0  0.7849943188500722  0.2469072595275793  0.1601678117763613  1.0000
  O   O5        1.0  0.1174501065414888  0.9663133933288319  0.7269457451309129  1.0000
  O   O6        1.0  0.8825498932454588  0.03368660708128326  0.2730542547420826  1.0000
  S   S1        1.0  0.4315258164893045  0.531919927388135  0.7107213700663819  1.0000
  S   S2        1.0  0.5684741849333019  0.4680800718189894  0.28927863035779705  1.0000
  S   S3        1.0  0.2647487279202693  0.8648607339887047  0.7668762286845965  1.0000
  S   S4        1.0  0.7352512721131002  0.13513926522042932  0.23312377125106282  1.0000
