data_image0
_chemical_formula_structural       H72C80N16O24
_chemical_formula_sum              "H72 C80 N16 O24"
_cell_length_a       6.971413567221193
_cell_length_b       14.240036772199103
_cell_length_c       18.15940706559872
_cell_angle_alpha    90.0
_cell_angle_beta     92.27274869855596
_cell_angle_gamma    90.0

_space_group_name_H-M_alt    "P 1"
_space_group_IT_number       1

loop_
  _space_group_symop_operation_xyz
  'x, y, z'

loop_
  _atom_site_type_symbol
  _atom_site_label
  _atom_site_symmetry_multiplicity
  _atom_site_fract_x
  _atom_site_fract_y
  _atom_site_fract_z
  _atom_site_occupancy
  H   H1        1.0  0.1285957902050103  0.6758405454955687  0.40151695009824334  1.0000
  H   H2        1.0  0.37140420974277516  0.17584054522166156  0.09848304986507601  1.0000
  H   H3        1.0  0.8714042096905606  0.32415945505224564  0.5984830498283954  1.0000
  H   H4        1.0  0.6285957901527959  0.8241594546239074  0.9015169500615626  1.0000
  H   H5        1.0  0.05660567706567837  0.5655258472170609  0.1815589161076892  1.0000
  H   H6        1.0  0.44339432288210706  0.06552584694315378  0.31844108385563014  1.0000
  H   H7        1.0  0.9433943228298926  0.43447415333075334  0.8184410838189494  1.0000
  H   H8        1.0  0.5566056770097914  0.9344741529024152  0.6815589166216296  1.0000
  H   H9        1.0  0.09897391038422201  0.7019485504078753  0.26505579403934487  1.0000
  H   H10       1.0  0.40102608956356345  0.2019485501339681  0.2349442059239745  1.0000
  H   H11       1.0  0.901026089511349  0.29805145013993906  0.7349442058872938  1.0000
  H   H12       1.0  0.5989739103320075  0.7980514497116009  0.7650557940026641  1.0000
  H   H13       1.0  0.12732868116789134  0.513815116986532  0.45111615875516603  1.0000
  H   H14       1.0  0.3726713187798941  0.013815116712624831  0.048883841208153256  1.0000
  H   H15       1.0  0.8726713187276796  0.48618488285903694  0.5488838411714726  1.0000
  H   H16       1.0  0.6273286811156769  0.9861848831329442  0.9511161587184852  1.0000
  H   H17       1.0  0.10476911564831827  0.2740891131418932  0.46440512118863886  1.0000
  H   H18       1.0  0.3952308842994672  0.7740891134158004  0.03559487877468043  1.0000
  H   H19       1.0  0.8952308842472526  0.7259108867036757  0.5355948787379997  1.0000
  H   H20       1.0  0.6047691155961038  0.2259108864297686  0.9644051211519582  1.0000
  H   H21       1.0  0.1970835114836724  0.02208710096971387  0.6356727975025275  1.0000
  H   H22       1.0  0.3029164894969727  0.5220871005413756  0.8643272029176952  1.0000
  H   H23       1.0  0.8029164884082262  0.9779128988758551  0.36432720297473214  1.0000
  H   H24       1.0  0.6970835103985984  0.4779128993041933  0.13567279700894347  1.0000
  H   H25       1.0  0.10654284428807118  0.1877136564154531  0.603177719515385  1.0000
  H   H26       1.0  0.3934571552606925  0.6877136566893602  0.8968222803309526  1.0000
  H   H27       1.0  0.8934571556074998  0.8122863434301159  0.39682228041125356  1.0000
  H   H28       1.0  0.6065428446348784  0.31228634315620873  0.103177719595686  1.0000
  H   H29       1.0  0.20703030514676118  0.14416334401662995  0.3833919474869518  1.0000
  H   H30       1.0  0.2929696948010243  0.6441633435882917  0.11660805247636749  1.0000
  H   H31       1.0  0.7929696947488097  0.8558366565311843  0.6166080524396869  1.0000
  H   H32       1.0  0.7070303050945467  0.35583665625727723  0.883391947450271  1.0000
  H   H33       1.0  0.33949826170514447  0.8393237195379967  0.43683985038099776  1.0000
  H   H34       1.0  0.160501738242641  0.33932371926408955  0.06316014958232158  1.0000
  H   H35       1.0  0.6605017381904266  0.16067628030757228  0.5631601495456409  1.0000
  H   H36       1.0  0.83949826165293  0.6606762805814794  0.9368398503443169  1.0000
  H   H37       1.0  0.28543662669463976  0.9740712606220269  0.4047018831406501  1.0000
  H   H38       1.0  0.21456337325314573  0.47407126034811975  0.09529811682266923  1.0000
  H   H39       1.0  0.7145633732009312  0.02592873922354205  0.5952981167859885  1.0000
  H   H40       1.0  0.7854366280779791  0.5259287394974492  0.9047018831272333  1.0000
  H   H41       1.0  0.3717285781986045  0.7556655163284535  0.5093837348929108  1.0000
  H   H42       1.0  0.12827142135015915  0.25566551605454635  0.9906162649534273  1.0000
  H   H43       1.0  0.6282714216969665  0.24433448421936085  0.49061626503372796  1.0000
  H   H44       1.0  0.8717285785454117  0.7443344837910226  0.00938373497321158  1.0000
  H   H45       1.0  0.8695574856521477  0.034561373532464267  0.025269520211050844  1.0000
  H   H46       1.0  0.6304425145902305  0.5345613738063715  0.4747304797958887  1.0000
  H   H47       1.0  0.1304425142434232  0.9654386263131047  0.9747304797155878  1.0000
  H   H48       1.0  0.3695574867408944  0.46543862674144293  0.5252695201540138  1.0000
  H   H49       1.0  0.940424030939508  0.13141124351963404  0.2851218856842836  1.0000
  H   H50       1.0  0.5595759693028702  0.6314112437935412  0.21487811432265594  1.0000
  H   H51       1.0  0.05957596895606293  0.8685887563259349  0.714878114242355  1.0000
  H   H52       1.0  0.44042403059270074  0.36858875605202773  0.7851218856039827  1.0000
  H   H53       1.0  0.8736920756009907  0.20293033060431734  0.06453124585018276  1.0000
  H   H54       1.0  0.6263079246413874  0.7029303301759791  0.4354687541567568  1.0000
  H   H55       1.0  0.12630792429458026  0.7970696692412516  0.9354687540764559  1.0000
  H   H56       1.0  0.3736920752541834  0.2970696696695898  0.5645312457698819  1.0000
  H   H57       1.0  0.9431194845135099  0.9577918258348511  0.2548661156156531  1.0000
  H   H58       1.0  0.5568805142933144  0.457791825560944  0.24513388436802255  1.0000
  H   H59       1.0  0.05688051538206105  0.0422081740107178  0.7451338843109856  1.0000
  H   H60       1.0  0.4431194856022565  0.542208174284625  0.754866115558616  1.0000
  H   H61       1.0  0.8237787618599967  0.7500198230422567  0.14491043374477328  1.0000
  H   H62       1.0  0.6762212383823817  0.25001982276834955  0.35508956626216626  1.0000
  H   H63       1.0  0.17622123803557432  0.24998017750555765  0.8550895661818654  1.0000
  H   H64       1.0  0.3237787615131894  0.7499801770772194  0.6449104336644723  1.0000
  H   H65       1.0  0.7656262703218639  0.838388100465298  0.20927883994888907  1.0000
  H   H66       1.0  0.7343737299205143  0.3383881001913909  0.29072116005805043  1.0000
  H   H67       1.0  0.23437372957003444  0.16161190008251633  0.7907211605283706  1.0000
  H   H68       1.0  0.26562626997505673  0.6616118996541781  0.7092788398685882  1.0000
  H   H69       1.0  0.9023408144071621  0.24462195117365915  0.19050753199406642  1.0000
  H   H70       1.0  0.5976591843996624  0.7446219514475664  0.30949246798960917  1.0000
  H   H71       1.0  0.09765918548840898  0.7553780486719097  0.8094924679325722  1.0000
  H   H72       1.0  0.4023408154959086  0.25537804839800265  0.6905075319370294  1.0000
  C   C1        1.0  0.09917527179235137  0.44741552089518144  0.3447520890574595  1.0000
  C   C2        1.0  0.4008247281554341  0.9474155211690886  0.1552479109058598  1.0000
  C   C3        1.0  0.9008247281032197  0.5525844789503875  0.6552479108691791  1.0000
  C   C4        1.0  0.5991752717401368  0.052584479378725735  0.8447520890207788  1.0000
  C   C5        1.0  0.04919103830993868  0.38312242849338335  0.21327060572973822  1.0000
  C   C6        1.0  0.4508089616378468  0.8831224280650452  0.2867293942335811  1.0000
  C   C7        1.0  0.9508089615856323  0.616877572054431  0.7867293941969004  1.0000
  C   C8        1.0  0.5491910382540516  0.11687757178052385  0.7132706062436787  1.0000
  C   C9        1.0  0.11224550118967647  0.3499255542463376  0.37462344360069727  1.0000
  C   C10       1.0  0.387754498758109  0.8499255545202448  0.12537655636262207  1.0000
  C   C11       1.0  0.8877544987058945  0.6500744455992313  0.6253765563259414  1.0000
  C   C12       1.0  0.6122455011337894  0.15007444532532416  0.8746234441146377  1.0000
  C   C13       1.0  0.09641377284694  0.6309402169199945  0.28781649976836327  1.0000
  C   C14       1.0  0.403586227097173  0.13094021664608727  0.2121835007455771  1.0000
  C   C15       1.0  0.9035862270449584  0.3690597836278199  0.7121835007088965  1.0000
  C   C16       1.0  0.5964137727947255  0.8690597831994816  0.7878164997316826  1.0000
  C   C17       1.0  0.08043433816923053  0.46200245864842726  0.26797683288208357  1.0000
  C   C18       1.0  0.4195656617785549  0.962002458220089  0.23202316708123574  1.0000
  C   C19       1.0  0.9195656617263405  0.5379975411971417  0.7320231670445551  1.0000
  C   C20       1.0  0.580434338117016  0.037997541625479914  0.767976832845403  1.0000
  C   C21       1.0  0.11400828789316801  0.5252957720308485  0.39188973930512455  1.0000
  C   C22       1.0  0.38599171205461746  0.025295771756941324  0.10811026065819473  1.0000
  C   C23       1.0  0.8859917120024029  0.47470422781472044  0.6081102606215141  1.0000
  C   C24       1.0  0.6140082878409534  0.9747042280886277  0.891889739268444  1.0000
  C   C25       1.0  0.11390763380495988  0.6164570991233717  0.36386634382272287  1.0000
  C   C26       1.0  0.38609236613915304  0.11645709884946447  0.13613365669121755  1.0000
  C   C27       1.0  0.8860923660869386  0.3835429007221973  0.6361336566545368  1.0000
  C   C28       1.0  0.6139076337527454  0.8835429009961044  0.8638663437860421  1.0000
  C   C29       1.0  0.0782738101849905  0.5537390047611703  0.2405211277506288  1.0000
  C   C30       1.0  0.42172618976279497  0.05373900518950853  0.2594788722126905  1.0000
  C   C31       1.0  0.9217261897105805  0.44626099508439865  0.7594788721760098  1.0000
  C   C32       1.0  0.578273810132776  0.9462609946560604  0.7405211277139482  1.0000
  C   C33       1.0  0.29465297581799915  0.884920690275294  0.5445054038728899  1.0000
  C   C34       1.0  0.20534702373076452  0.38492069000138684  0.9554945959734479  1.0000
  C   C35       1.0  0.7053470240775718  0.11507930957027497  0.45549459605374876  1.0000
  C   C36       1.0  0.7946529761648065  0.6150793098441821  0.04450540395319081  1.0000
  C   C37       1.0  0.1986028321087876  0.04649530690065431  0.5790410912461792  1.0000
  C   C38       1.0  0.30139716743630357  0.5464953071745615  0.9209589091507797  1.0000
  C   C39       1.0  0.8013971677867835  0.9535046929449147  0.42095890868045943  1.0000
  C   C40       1.0  0.6986028324555948  0.45350469267100746  0.07904109132648007  1.0000
  C   C41       1.0  0.24869437291236623  0.9846794502226968  0.5231514157372893  1.0000
  C   C42       1.0  0.2513056266363975  0.48467944994878964  0.9768485841090486  1.0000
  C   C43       1.0  0.7513056269832047  0.015320549622872114  0.4768485841893494  1.0000
  C   C44       1.0  0.7486943732591734  0.5153205498967792  0.02315141581759013  1.0000
  C   C45       1.0  0.15062133809713962  0.13861208236860315  0.5610063555963578  1.0000
  C   C46       1.0  0.349378662887178  0.6386120819402649  0.938993644273244  1.0000
  C   C47       1.0  0.8493786632339853  0.8613879181792112  0.4389936443535449  1.0000
  C   C48       1.0  0.650621337008393  0.361387917905304  0.061006355653394656  1.0000
  C   C49       1.0  0.25117614393766585  0.01887431853580062  0.45106392363338654  1.0000
  C   C50       1.0  0.24882385601011964  0.5188743181074624  0.048936076329932736  1.0000
  C   C51       1.0  0.7488238559579052  0.9811256820120138  0.548936076293252  1.0000
  C   C52       1.0  0.7511761438854514  0.48112568173810655  0.9510639235967059  1.0000
  C   C53       1.0  0.20516841092188673  0.1126405616544129  0.43809395979756854  1.0000
  C   C54       1.0  0.29483158902589873  0.6126405619283201  0.06190604016575074  1.0000
  C   C55       1.0  0.7948315889736842  0.887359438191156  0.5619060401290701  1.0000
  C   C56       1.0  0.7051684108696722  0.3873594386194943  0.9380939597608879  1.0000
  C   C57       1.0  0.8937452475656946  0.8815351231752061  0.11363229962908063  1.0000
  C   C58       1.0  0.6062547526766835  0.38153512360354425  0.3863677003778589  1.0000
  C   C59       1.0  0.10625475232987627  0.11846487667036293  0.8863677002975581  1.0000
  C   C60       1.0  0.39374524865444127  0.6184648762420247  0.6136322995720437  1.0000
  C   C61       1.0  0.8828356112481974  0.05239711960973913  0.08326731961086746  1.0000
  C   C62       1.0  0.6171643889941808  0.5523971191814009  0.4167326803960721  1.0000
  C   C63       1.0  0.11716438864737348  0.9476028802358298  0.9167326803157712  1.0000
  C   C64       1.0  0.3828356109013902  0.44760288066416803  0.5832673195305665  1.0000
  C   C65       1.0  0.8990961887260016  0.9829246857933813  0.13748344690412295  1.0000
  C   C66       1.0  0.6009038100808228  0.48292468551947415  0.36251655307955266  1.0000
  C   C67       1.0  0.10090381116956933  0.017075314052187634  0.8625165530225157  1.0000
  C   C68       1.0  0.39909618981474826  0.5170753143260948  0.6374834468470859  1.0000
  C   C69       1.0  0.9233151739738799  0.009953708846926717  0.21142264367469238  1.0000
  C   C70       1.0  0.5766848262684984  0.5099537084185884  0.2885773563322472  1.0000
  C   C71       1.0  0.07668482592169118  0.9900462917008876  0.7885773562519464  1.0000
  C   C72       1.0  0.42331517362340004  0.4900462914269804  0.7114226441450126  1.0000
  C   C73       1.0  0.8865820377244819  0.14573608925305542  0.10403503400590326  1.0000
  C   C74       1.0  0.6134179625178964  0.6457360895269626  0.39596496600103626  1.0000
  C   C75       1.0  0.11341796217108906  0.8542639105925135  0.8959649659207354  1.0000
  C   C76       1.0  0.38658203737767466  0.3542639110208517  0.6040350339256024  1.0000
  C   C77       1.0  0.9256309686801517  0.10468885606464473  0.22904624022290632  1.0000
  C   C78       1.0  0.5743690315622266  0.6046888556363065  0.27095375978403324  1.0000
  C   C79       1.0  0.07436903121541925  0.8953111437809242  0.7709537597037323  1.0000
  C   C80       1.0  0.42563096833334446  0.3953111442092625  0.7290462401426056  1.0000
  N   N1        1.0  0.15439472836756662  0.17150034575527665  0.4917521514031724  1.0000
  N   N2        1.0  0.3456052715802188  0.6715003460291838  0.008247848560146964  1.0000
  N   N3        1.0  0.8456052715280044  0.8284996540902924  0.5082478485234663  1.0000
  N   N4        1.0  0.6543947283153521  0.32849965381638513  0.9917521513664918  1.0000
  N   N5        1.0  0.3374472340741409  0.8230681674138675  0.49200857887727384  1.0000
  N   N6        1.0  0.16255276587364456  0.3230681671399602  0.007991421086045484  1.0000
  N   N7        1.0  0.6625527658214301  0.17693183243170157  0.5079914210493648  1.0000
  N   N8        1.0  0.8374472340219266  0.6769318327056086  0.992008578840593  1.0000
  N   N9        1.0  0.8365146857627415  0.819090738780356  0.1626928980713901  1.0000
  N   N10       1.0  0.6634853144796368  0.31909073920869424  0.33730710193554947  1.0000
  N   N11       1.0  0.16348531556838342  0.18090926106521296  0.8373071018785125  1.0000
  N   N12       1.0  0.33651468541593416  0.6809092606368747  0.6626928979910892  1.0000
  N   N13       1.0  0.9059363978962546  0.1695058923381726  0.17551287798465048  1.0000
  N   N14       1.0  0.5940636023461238  0.6695058926120798  0.3244871220222891  1.0000
  N   N15       1.0  0.09406360199931646  0.8304941075073963  0.8244871219419881  1.0000
  N   N16       1.0  0.4059363989850011  0.3304941072334892  0.6755128779276135  1.0000
  O   O1        1.0  0.8839896475544443  0.3421524795155126  0.21456947864101952  1.0000
  O   O2        1.0  0.6160103526879339  0.8421524797894198  0.28543052136592  1.0000
  O   O3        1.0  0.11601035234112661  0.6578475203300563  0.7854305212856191  1.0000
  O   O4        1.0  0.3839896472076371  0.15784752005614922  0.7145694785607187  1.0000
  O   O5        1.0  0.07915701252912676  0.3433628134686979  0.4462390315042476  1.0000
  O   O6        1.0  0.4208429874186588  0.8433628130403598  0.05376096845907174  1.0000
  O   O7        1.0  0.9208429873664442  0.6566371870791163  0.553760968422391  1.0000
  O   O8        1.0  0.5791570124769123  0.15663718680520927  0.9462390314675668  1.0000
  O   O9        1.0  0.1524379280551352  0.282415581808848  0.3352308585181165  1.0000
  O   O10       1.0  0.3475620718926503  0.7824155813805097  0.1647691414452028  1.0000
  O   O11       1.0  0.8475620718404357  0.7175844180367209  0.6647691414085222  1.0000
  O   O12       1.0  0.6524379280029207  0.21758441846505916  0.835230858481436  1.0000
  O   O13       1.0  0.1738762262072794  0.36630112712795093  0.1669961962644104  1.0000
  O   O14       1.0  0.3261237737405061  0.8663011266996128  0.333003803698909  1.0000
  O   O15       1.0  0.8261237736882916  0.633698872717618  0.8330038036622283  1.0000
  O   O16       1.0  0.6738762261550649  0.13369887314595622  0.6669961962277297  1.0000
  O   O17       1.0  0.2910529291315315  0.863325974270041  0.6114573889033452  1.0000
  O   O18       1.0  0.20894707185278602  0.36332597399613376  0.8885426109662566  1.0000
  O   O19       1.0  0.7089470721995933  0.13667402557552802  0.3885426110465573  1.0000
  O   O20       1.0  0.7910529280427849  0.6366740258494351  0.11145738896038222  1.0000
  O   O21       1.0  0.9433796637241265  0.8607733432212948  0.04994894803168942  1.0000
  O   O22       1.0  0.5566203350826978  0.36077334364963315  0.4500510519519862  1.0000
  O   O23       1.0  0.056620336171444435  0.13922665662427403  0.9500510518949493  1.0000
  O   O24       1.0  0.4433796648128731  0.6392266561959358  0.5499489479746524  1.0000
