data_image0
_chemical_formula_structural       H48B8C12N24O24
_chemical_formula_sum              "H48 B8 C12 N24 O24"
_cell_length_a       3.5238364100461554
_cell_length_b       19.82108659120535
_cell_length_c       13.878034893105946
_cell_angle_alpha    90.0
_cell_angle_beta     92.41176919364193
_cell_angle_gamma    90.0

_space_group_name_H-M_alt    "P 1"
_space_group_IT_number       1

loop_
  _space_group_symop_operation_xyz
  'x, y, z'

loop_
  _atom_site_type_symbol
  _atom_site_label
  _atom_site_symmetry_multiplicity
  _atom_site_fract_x
  _atom_site_fract_y
  _atom_site_fract_z
  _atom_site_occupancy
  H   H1        1.0  0.7007559953441858  0.43392726228320083  0.004664545714459622  1.0000
  H   H2        1.0  0.2992440035622672  0.9339272625050516  0.4953354537010887  1.0000
  H   H3        1.0  0.2992440048732473  0.5660727376559875  0.9953354542540913  1.0000
  H   H4        1.0  0.7007559966551659  0.06607273793864996  0.5046645462674622  1.0000
  H   H5        1.0  0.7954756833686529  0.47685017551932446  0.8968245929937573  1.0000
  H   H6        1.0  0.2045243153216543  0.9768501757411752  0.6031754075259946  1.0000
  H   H7        1.0  0.20452431684878003  0.5231498244198639  0.10317540697479353  1.0000
  H   H8        1.0  0.7954756848957788  0.023149824702526377  0.3968245924425562  1.0000
  H   H9        1.0  0.18892981906930179  0.3544926579916985  0.6344592499314337  1.0000
  H   H10       1.0  0.8110701823466763  0.8544926582135492  0.8655407498689202  1.0000
  H   H11       1.0  0.8110701811481312  0.6455073419474898  0.3655407500371174  1.0000
  H   H12       1.0  0.18892981787075677  0.1455073417256391  0.13445925009963075  1.0000
  H   H13       1.0  0.2345845093749665  0.2645993137594716  0.6436948369238418  1.0000
  H   H14       1.0  0.7654154921534467  0.7645993139813224  0.8563051635977116  1.0000
  H   H15       1.0  0.7654154908424666  0.7354006861797168  0.35630516304470916  1.0000
  H   H16       1.0  0.23458450817642149  0.235400685957866  0.14369483709203895  1.0000
  H   H17       1.0  0.839587988634796  0.15587527786548636  0.917406761080002  1.0000
  H   H18       1.0  0.16041200994307617  0.6558752775828239  0.5825932387185503  1.0000
  H   H19       1.0  0.16041201158263707  0.844124722073702  0.08259323888854894  1.0000
  H   H20       1.0  0.8395879902743569  0.34412472235636443  0.41740676125000054  1.0000
  H   H21       1.0  0.7218848206002447  0.20372398311360393  0.016777533662870322  1.0000
  H   H22       1.0  0.2781151784186433  0.7037239833354547  0.48322246647387773  1.0000
  H   H23       1.0  0.27811517961718835  0.7962760168255845  0.9832224663056806  1.0000
  H   H24       1.0  0.7218848217987897  0.2962760171082469  0.5167775334946731  1.0000
  H   H25       1.0  0.20410715133054103  0.31743861977737187  0.2769803882153924  1.0000
  H   H26       1.0  0.7958928505264529  0.8174386199992226  0.22301961192315706  1.0000
  H   H27       1.0  0.7958928488868922  0.6825613801618164  0.7230196117531585  1.0000
  H   H28       1.0  0.20410714969098018  0.1825613799399657  0.7769803880453939  1.0000
  H   H29       1.0  0.6558307847998704  0.46078909135347185  0.1869571804001581  1.0000
  H   H30       1.0  0.3441692142190178  0.9607890915753228  0.31304281973659004  1.0000
  H   H31       1.0  0.34416921541756273  0.5392109085857165  0.8130428195683927  1.0000
  H   H32       1.0  0.6558307859984153  0.03921090836386569  0.6869571802319611  1.0000
  H   H33       1.0  0.5545801324971567  0.3173749219576691  0.043519950528120646  1.0000
  H   H34       1.0  0.4454198665217315  0.8173749221795198  0.4564800496086274  1.0000
  H   H35       1.0  0.4454198677202765  0.6826250779815193  0.9564800494404303  1.0000
  H   H36       1.0  0.5545801336957017  0.1826250782641817  0.5435199503599235  1.0000
  H   H37       1.0  0.34511888444142286  0.4433690201373357  0.507887293416801  1.0000
  H   H38       1.0  0.6548811169745552  0.9433690203591866  0.9921127063835528  1.0000
  H   H39       1.0  0.6548811157760103  0.5566309798018527  0.49211270655175005  1.0000
  H   H40       1.0  0.3451188832428778  0.05663097958000191  0.007887293584998083  1.0000
  H   H41       1.0  0.12851667253486349  0.43966101403677155  0.7551262382571003  1.0000
  H   H42       1.0  0.8714833288811145  0.9396610142586224  0.7448737615432532  1.0000
  H   H43       1.0  0.8714833276825695  0.5603389859024169  0.24487376171145045  1.0000
  H   H44       1.0  0.1285166713363185  0.060338985680566073  0.25512623842529764  1.0000
  H   H45       1.0  0.5821917682653398  0.5809554409145914  0.6577933769959852  1.0000
  H   H46       1.0  0.4178082303125323  0.08095544069274056  0.8422066228025671  1.0000
  H   H47       1.0  0.4178082319520932  0.41904455902459703  0.34220662297256577  1.0000
  H   H48       1.0  0.5821917699049007  0.9190445592464479  0.1577933771659837  1.0000
  B   B1        1.0  0.4480046224211915  0.36732058035761045  0.16710272350982414  1.0000
  B   B2        1.0  0.5519953765976966  0.867320580074948  0.332897276626924  1.0000
  B   B3        1.0  0.5519953777962415  0.632679419581578  0.8328972764587268  1.0000
  B   B4        1.0  0.44800462361973653  0.13267941986424037  0.667102723341627  1.0000
  B   B5        1.0  0.33873402548611603  0.489527822067294  0.6373355349238435  1.0000
  B   B6        1.0  0.6612659730917562  0.9895278217846316  0.8626644648747087  1.0000
  B   B7        1.0  0.6612659718932112  0.5104721778718944  0.36266446504290595  1.0000
  B   B8        1.0  0.33873402712567685  0.010472178154556831  0.13733553509384208  1.0000
  C   C1        1.0  0.8385152027421957  0.37382069322514444  0.8908894356265963  1.0000
  C   C2        1.0  0.16148479583567651  0.8738206934469953  0.6091105641719561  1.0000
  C   C3        1.0  0.16148479747523742  0.626179306714044  0.10911056434195468  1.0000
  C   C4        1.0  0.8385152043817565  0.12617930649219314  0.3908894357965948  1.0000
  C   C5        1.0  0.03472819423064149  0.31253517568247935  0.7615011371362506  1.0000
  C   C6        1.0  0.9652718043472306  0.812535175399817  0.7384988626623018  1.0000
  C   C7        1.0  0.9652718031486857  0.6874648247612223  0.238498862830499  1.0000
  C   C8        1.0  0.03472819587020237  0.18746482453937147  0.2615011373062491  1.0000
  C   C9        1.0  0.8680210361756021  0.2587115361412768  0.8992595282291239  1.0000
  C   C10       1.0  0.13197896524037606  0.7587115358586144  0.6007404715712298  1.0000
  C   C11       1.0  0.13197896404183107  0.7412884637979116  0.10074047173942699  1.0000
  C   C12       1.0  0.8680210349770571  0.241288464080574  0.3992595283973211  1.0000
  N   N1        1.0  0.963729705094218  0.373710336510343  0.800317948621846  1.0000
  N   N2        1.0  0.03627029632176008  0.8737103362276807  0.6996820511785077  1.0000
  N   N3        1.0  0.03627029512321509  0.6262896634288454  0.19968205134670486  1.0000
  N   N4        1.0  0.9637297038956729  0.12628966371150777  0.30031794879004325  1.0000
  N   N5        1.0  0.004268631482400337  0.2535773458671092  0.8102835661693629  1.0000
  N   N6        1.0  0.9957313670954718  0.75357734608896  0.6897164336291893  1.0000
  N   N7        1.0  0.9957313687350327  0.7464226540720792  0.18971643379918793  1.0000
  N   N8        1.0  0.004268633121961245  0.2464226538502284  0.3102835663393616  1.0000
  N   N9        1.0  0.7699329660015071  0.31702770184093476  0.9413987901258437  1.0000
  N   N10       1.0  0.23006703541447093  0.8170277020627855  0.5586012096745099  1.0000
  N   N11       1.0  0.23006703421592595  0.6829722980982537  0.05860120984270711  1.0000
  N   N12       1.0  0.7699329648029621  0.18297229787640285  0.441398790294041  1.0000
  N   N13       1.0  0.7767643131940393  0.43302228767863205  0.9340011670357177  1.0000
  N   N14       1.0  0.2232356882219388  0.9330222873959697  0.565998832764636  1.0000
  N   N15       1.0  0.22323568702339383  0.5669777127650696  0.0659988329328332  1.0000
  N   N16       1.0  0.7767643119954942  0.06697771254321877  0.43400116720391485  1.0000
  N   N17       1.0  0.1436431285906875  0.31017046879396815  0.6706576597550403  1.0000
  N   N18       1.0  0.8563568699871846  0.810170469015819  0.8293423400435118  1.0000
  N   N19       1.0  0.8563568716267456  0.6898295311452203  0.3293423402135105  1.0000
  N   N20       1.0  0.1436431302302484  0.18982953092336943  0.17065765992503895  1.0000
  N   N21       1.0  0.8318352265676124  0.2013783685184571  0.9505864873937001  1.0000
  N   N22       1.0  0.16816477484836564  0.7013783687403079  0.5494135124066536  1.0000
  N   N23       1.0  0.16816477364982066  0.7986216314207313  0.04941351257485075  1.0000
  N   N24       1.0  0.8318352253690675  0.29862163119888047  0.4505864875618973  1.0000
  O   O1        1.0  0.3221691722199974  0.3630952398539692  0.26008377103139396  1.0000
  O   O2        1.0  0.6778308296369967  0.86309524007582  0.23991622910715552  1.0000
  O   O3        1.0  0.6778308279974358  0.6369047600852192  0.7399162289371569  1.0000
  O   O4        1.0  0.3221691705804365  0.1369047598633684  0.7600837708613953  1.0000
  O   O5        1.0  0.5972059967760251  0.4269765101452666  0.13402583465346984  1.0000
  O   O6        1.0  0.40279400508096874  0.9269765103671175  0.3659741654850796  1.0000
  O   O7        1.0  0.40279400344140787  0.5730234897939218  0.865974165315081  1.0000
  O   O8        1.0  0.5972059951364643  0.0730234900765842  0.6340258344834713  1.0000
  O   O9        1.0  0.42292473957457644  0.31239662576053817  0.10752295536136613  1.0000
  O   O10       1.0  0.5770752594443116  0.8123966254778757  0.392477044775382  1.0000
  O   O11       1.0  0.5770752606428566  0.6876033741786503  0.8924770446071847  1.0000
  O   O12       1.0  0.42292474077312137  0.18760337446131262  0.6075229551931689  1.0000
  O   O13       1.0  0.26153474286107603  0.436833756320998  0.5751960555973745  1.0000
  O   O14       1.0  0.7384652557167961  0.9368337565428488  0.9248039442011776  1.0000
  O   O15       1.0  0.738465257356357  0.5631662436181903  0.4248039443711763  1.0000
  O   O16       1.0  0.26153474166253105  0.06316624390085279  0.07519605576557177  1.0000
  O   O17       1.0  0.24867370306736425  0.48455477028496957  0.7322430696232288  1.0000
  O   O18       1.0  0.7513262955105079  0.9845547700023073  0.7677569301753236  1.0000
  O   O19       1.0  0.7513262943119629  0.515445230158732  0.26775693034352077  1.0000
  O   O20       1.0  0.2486737047069251  0.015445229936881227  0.23224306979322729  1.0000
  O   O21       1.0  0.5072202929692722  0.5480363818611129  0.6048022311015733  1.0000
  O   O22       1.0  0.4927797057210352  0.04803638163926205  0.8951977694181787  1.0000
  O   O23       1.0  0.49277970724816084  0.45196361807807556  0.3951977688669776  1.0000
  O   O24       1.0  0.507220294608833  0.9519636182999263  0.10480223127157179  1.0000
