data_image0
_chemical_formula_structural       H20C16N8O4S2Br2
_chemical_formula_sum              "H20 C16 N8 O4 S2 Br2"
_cell_length_a       6.402856467926929
_cell_length_b       9.689545410324126
_cell_length_c       9.580254633521074
_cell_angle_alpha    101.73148572236597
_cell_angle_beta     100.13865530105448
_cell_angle_gamma    97.6309238580148

_space_group_name_H-M_alt    "P 1"
_space_group_IT_number       1

loop_
  _space_group_symop_operation_xyz
  'x, y, z'

loop_
  _atom_site_type_symbol
  _atom_site_label
  _atom_site_symmetry_multiplicity
  _atom_site_fract_x
  _atom_site_fract_y
  _atom_site_fract_z
  _atom_site_occupancy
  H   H1        1.0  0.6771682792922421  0.23932883778669115  0.40970876238644277  1.0000
  H   H2        1.0  0.32283171973381547  0.7606711621931559  0.5902912372222051  1.0000
  H   H3        1.0  0.7382688166101695  0.5035828044518578  0.18157499000847666  1.0000
  H   H4        1.0  0.2617311826641425  0.4964171957774711  0.8184250106886257  1.0000
  H   H5        1.0  0.9487619871199601  0.8660339506403851  0.9860323979793955  1.0000
  H   H6        1.0  0.051238013492573606  0.133966049402411  0.013967601690950172  1.0000
  H   H7        1.0  0.757525309462077  0.3948363159557987  0.6364194252317812  1.0000
  H   H8        1.0  0.24247468956398058  0.6051636840240483  0.3635805743768666  1.0000
  H   H9        1.0  0.641789552888536  0.09715074038573264  0.9199002438753994  1.0000
  H   H10       1.0  0.358210446385776  0.9028492598435961  0.08009975682170294  1.0000
  H   H11       1.0  0.38649558129670997  0.13616642943893761  0.9324791644034438  1.0000
  H   H12       1.0  0.6135044179776021  0.8638335707903914  0.06752083629365863  1.0000
  H   H13       1.0  0.8536311592621482  0.5895427853862352  0.8874039757788098  1.0000
  H   H14       1.0  0.14636883976390944  0.41045721459361184  0.11259602382983792  1.0000
  H   H15       1.0  0.509988360330143  0.3701357464800691  0.9134624163306511  1.0000
  H   H16       1.0  0.4900116389441688  0.6298642537492597  0.08653758436645131  1.0000
  H   H17       1.0  0.7852134119839115  0.345849815577413  0.9447246872504689  1.0000
  H   H18       1.0  0.21478658862862232  0.6541501844653831  0.05527531241987676  1.0000
  H   H19       1.0  0.9340432541074066  0.002015911154420902  0.7673582669489384  1.0000
  H   H20       1.0  0.06595674491865108  0.9979840888254262  0.2326417326597095  1.0000
  C   C1        1.0  0.6475830325066254  0.29547481413445487  0.21178000304040923  1.0000
  C   C2        1.0  0.35241696638476816  0.7045251848062105  0.7882199965723226  1.0000
  C   C3        1.0  0.8110519759185593  0.6245722516716269  0.6658387041689183  1.0000
  C   C4        1.0  0.18894802469397443  0.3754277483711693  0.33416129550142737  1.0000
  C   C5        1.0  0.9074485327381221  0.8143746130631452  0.8705238008996308  1.0000
  C   C6        1.0  0.09255146812266606  0.18562538722913272  0.12947619985916953  1.0000
  C   C7        1.0  0.7606948744985981  0.482899726545277  0.5796411535746203  1.0000
  C   C8        1.0  0.23930512636219017  0.5171002737470011  0.4203588471841799  1.0000
  C   C9        1.0  0.5598513882778423  0.1723476268170214  0.983203866570586  1.0000
  C   C10       1.0  0.44014861258294585  0.8276523734752567  0.01679613418821416  1.0000
  C   C11       1.0  0.856026922115111  0.6655655898472402  0.8181986448830757  1.0000
  C   C12       1.0  0.14397307849742277  0.33443441019555586  0.1818013547872698  1.0000
  C   C13       1.0  0.6320903328563229  0.3300778802963852  0.9826752813114692  1.0000
  C   C14       1.0  0.36790966616973486  0.6699221196834619  0.017324718297178757  1.0000
  C   C15       1.0  0.8996408573095568  0.8866729745634957  0.7585848236305627  1.0000
  C   C16       1.0  0.10035914316831279  0.11332702444011887  0.24141517604386697  1.0000
  N   N1        1.0  0.5954776049337187  0.1620721330875647  0.13524737216854893  1.0000
  N   N2        1.0  0.4045223940923388  0.8379278668922822  0.864752627440099  1.0000
  N   N3        1.0  0.684882372881769  0.3252413678895316  0.36131726959298  1.0000
  N   N4        1.0  0.3151176261442885  0.6747586320903154  0.6386827300156679  1.0000
  N   N5        1.0  0.6585876153829051  0.39932048265090275  0.1366468967030958  1.0000
  N   N6        1.0  0.3414123836431525  0.6006795173289443  0.8633531029055521  1.0000
  N   N7        1.0  0.7284442128717461  0.4604257817007295  0.4367039105745773  1.0000
  N   N8        1.0  0.2715557877407877  0.5395742183420665  0.5632960890957683  1.0000
  O   O1        1.0  0.5007923350504361  0.9424166889550493  0.37924276112262434  1.0000
  O   O2        1.0  0.49920766397562155  0.057583311024797613  0.6207572384860235  1.0000
  O   O3        1.0  0.6502102122853068  0.038172375117021255  0.4540347675759811  1.0000
  O   O4        1.0  0.34978978674075073  0.9618276248628259  0.5459652320326667  1.0000
  S   S1        1.0  0.8313005680854212  0.7743920515113173  0.5897479927300232  1.0000
  S   S2        1.0  0.16869943252711267  0.22560794853147886  0.41025200694032243  1.0000
  Br  Br1       1.0  0.9428896945979649  0.7269813191242342  0.22197035272174578  1.0000
  Br  Br2       1.0  0.05711030601456891  0.27301868091856185  0.7780296469485998  1.0000
