data_image0
_chemical_formula_structural       H88C112N32O8S8
_chemical_formula_sum              "H88 C112 N32 O8 S8"
_cell_length_a       13.485773079430967
_cell_length_b       16.246017126592175
_cell_length_c       12.556416822707307
_cell_angle_alpha    90.0
_cell_angle_beta     101.19394830840467
_cell_angle_gamma    90.0

_space_group_name_H-M_alt    "P 1"
_space_group_IT_number       1

loop_
  _space_group_symop_operation_xyz
  'x, y, z'

loop_
  _atom_site_type_symbol
  _atom_site_label
  _atom_site_symmetry_multiplicity
  _atom_site_fract_x
  _atom_site_fract_y
  _atom_site_fract_z
  _atom_site_occupancy
  H   H1        1.0  0.28109676681757484  0.4421736425626218  0.3104179586378042  1.0000
  H   H2        1.0  0.7189032327901227  0.4421736425626218  0.18958204152230593  1.0000
  H   H3        1.0  0.7810967668780868  0.9421736429752714  0.31041795856312526  1.0000
  H   H4        1.0  0.2189032327296107  0.9421736429752714  0.18958204159698486  1.0000
  H   H5        1.0  0.718903233032697  0.5578263570316065  0.6895820419911949  1.0000
  H   H6        1.0  0.2810967670618731  0.5578263570316065  0.8104179583106492  1.0000
  H   H7        1.0  0.21890323297390893  0.05782635723449235  0.6895820412698299  1.0000
  H   H8        1.0  0.781096767122385  0.05782635723449235  0.8104179582359703  1.0000
  H   H9        1.0  0.1731842526640012  0.3250418560347589  0.3507880965823801  1.0000
  H   H10       1.0  0.826815747699597  0.3250418560347589  0.149211903737151  1.0000
  H   H11       1.0  0.6731842527245131  0.825041855831873  0.3507880965077012  1.0000
  H   H12       1.0  0.3268157476390851  0.825041855831873  0.14921190381182997  1.0000
  H   H13       1.0  0.8268157471879944  0.6749581441750049  0.649211903250575  1.0000
  H   H14       1.0  0.17318425215239866  0.6749581441750049  0.8507880960958041  1.0000
  H   H15       1.0  0.32681574712748257  0.1749581437623553  0.6492119033252539  1.0000
  H   H16       1.0  0.6731842522129107  0.1749581437623553  0.8507880960211253  1.0000
  H   H17       1.0  0.08796641067174733  0.23465744005402706  0.20140737102745204  1.0000
  H   H18       1.0  0.9120335896918509  0.23465744005402706  0.2985926292920791  1.0000
  H   H19       1.0  0.5879664107322593  0.7346574398511412  0.2014073709527731  1.0000
  H   H20       1.0  0.41203358963133896  0.7346574398511412  0.298592629366758  1.0000
  H   H21       1.0  0.9120335891802483  0.7653425601557368  0.7985926288055031  1.0000
  H   H22       1.0  0.08796641016014481  0.7653425601557368  0.701407370540876  1.0000
  H   H23       1.0  0.4120335898756372  0.2653425603586225  0.7985926290396029  1.0000
  H   H24       1.0  0.5879664102206568  0.2653425603586225  0.701407370466197  1.0000
  H   H25       1.0  0.11175855879098773  0.2583154761748238  0.012299569973219333  1.0000
  H   H26       1.0  0.8882414415726104  0.2583154761748238  0.48770043034631183  1.0000
  H   H27       1.0  0.6117585588514998  0.7583154759719379  0.012299569898540412  1.0000
  H   H28       1.0  0.38824144151209855  0.7583154759719379  0.4877004304209908  1.0000
  H   H29       1.0  0.8882414410610081  0.7416845240349399  0.9877004298597358  1.0000
  H   H30       1.0  0.11175855903528598  0.7416845240349399  0.5122995696460643  1.0000
  H   H31       1.0  0.38824144100049607  0.24168452362229034  0.9877004299344148  1.0000
  H   H32       1.0  0.6117585590940741  0.24168452362229034  0.5122995703674293  1.0000
  H   H33       1.0  0.22043678731912805  0.37574807243112174  0.9728197233357327  1.0000
  H   H34       1.0  0.7795632127771658  0.37574807243112174  0.5271802761700672  1.0000
  H   H35       1.0  0.720436787377916  0.8757480722282359  0.9728197240570979  1.0000
  H   H36       1.0  0.2795632127166539  0.8757480722282359  0.5271802762447461  1.0000
  H   H37       1.0  0.7795632132887684  0.624251927778642  0.027180276656643236  1.0000
  H   H38       1.0  0.22043678707482986  0.624251927778642  0.47281972366288794  1.0000
  H   H39       1.0  0.2795632132282565  0.12425192798152791  0.027180276731322162  1.0000
  H   H40       1.0  0.7204367871353418  0.12425192798152791  0.472819723588209  1.0000
  H   H41       1.0  0.1767537409028198  0.6439500456315516  0.04504874209440783  1.0000
  H   H42       1.0  0.8232462587048777  0.6439500456315516  0.45495125806570236  1.0000
  H   H43       1.0  0.6767537409633316  0.143950045218902  0.04504874201972889  1.0000
  H   H44       1.0  0.3232462586443657  0.143950045218902  0.4549512581403812  1.0000
  H   H45       1.0  0.8232462589491759  0.35604995457821215  0.9549512577385473  1.0000
  H   H46       1.0  0.17675374114711803  0.35604995457821215  0.5450487417672527  1.0000
  H   H47       1.0  0.323246258888664  0.8560499543753263  0.9549512578132262  1.0000
  H   H48       1.0  0.6767537412076301  0.8560499543753263  0.5450487416925739  1.0000
  H   H49       1.0  0.13764279641168456  0.552580896600538  0.09138022237432189  1.0000
  H   H50       1.0  0.8623572039536377  0.552580896600538  0.4086197771491652  1.0000
  H   H51       1.0  0.6376427964721965  0.05258089680342388  0.09138022229964297  1.0000
  H   H52       1.0  0.36235720389312565  0.05258089680342388  0.40861977722384407  1.0000
  H   H53       1.0  0.8623572041962119  0.4474191029936903  0.9086197776180542  1.0000
  H   H54       1.0  0.13764279589835815  0.4474191029936903  0.5913802226837899  1.0000
  H   H55       1.0  0.36235720413569994  0.9474191034063398  0.9086197776927332  1.0000
  H   H56       1.0  0.6376427959588701  0.9474191034063398  0.5913802226091109  1.0000
  H   H57       1.0  0.3965259204429951  0.1389094620801609  0.17349919725928475  1.0000
  H   H58       1.0  0.6034740799206031  0.1389094620801609  0.32650080306024637  1.0000
  H   H59       1.0  0.8965259197476062  0.638909461877275  0.17349919702518482  1.0000
  H   H60       1.0  0.10347407986009122  0.638909461877275  0.3265008031349253  1.0000
  H   H61       1.0  0.6034740801631775  0.8610905381296029  0.8265008035291354  1.0000
  H   H62       1.0  0.3965259199313925  0.8610905381296029  0.6734991967727086  1.0000
  H   H63       1.0  0.10347408010438948  0.3610905377169532  0.8265008028077703  1.0000
  H   H64       1.0  0.8965259199919045  0.3610905377169532  0.6734991966980297  1.0000
  H   H65       1.0  0.50971201728031  0.1881773013150378  0.15010138449371377  1.0000
  H   H66       1.0  0.4902879830832882  0.1881773013150378  0.3498986158258173  1.0000
  H   H67       1.0  0.009712017219798127  0.6881773011121519  0.1501013845683927  1.0000
  H   H68       1.0  0.9902879831438002  0.6881773011121519  0.3498986157511384  1.0000
  H   H69       1.0  0.49028798332758644  0.811822698894726  0.8498986154986624  1.0000
  H   H70       1.0  0.5097120167669836  0.811822698894726  0.6501013848031817  1.0000
  H   H71       1.0  0.9902879826321976  0.31182269848207633  0.8498986152645623  1.0000
  H   H72       1.0  0.009712016708195608  0.31182269848207633  0.6501013840818167  1.0000
  H   H73       1.0  0.505642760743886  0.9370609184623788  0.14981799088728529  1.0000
  H   H74       1.0  0.4943572396214361  0.9370609184623788  0.3501820086362018  1.0000
  H   H75       1.0  0.005642760683374125  0.4370609186652647  0.14981799096196424  1.0000
  H   H76       1.0  0.994357239681948  0.4370609186652647  0.3501820085615228  1.0000
  H   H77       1.0  0.49435723986401037  0.06293908113184941  0.8501820091050907  1.0000
  H   H78       1.0  0.5056427602305597  0.06293908113184941  0.6498179911967533  1.0000
  H   H79       1.0  0.9943572391686215  0.562939081544499  0.8501820088709909  1.0000
  H   H80       1.0  0.005642760170047712  0.562939081544499  0.6498179912714322  1.0000
  H   H81       1.0  0.395409203867758  0.9890734174900251  0.17427577819226736  1.0000
  H   H82       1.0  0.6045907957399395  0.9890734174900251  0.3257242219678428  1.0000
  H   H83       1.0  0.89540920392827  0.489073417692911  0.17427577811758843  1.0000
  H   H84       1.0  0.1045907956794275  0.489073417692911  0.3257242220425217  1.0000
  H   H85       1.0  0.6045907959842376  0.010926582719738636  0.8257242216406878  1.0000
  H   H86       1.0  0.39540920411205627  0.010926582719738636  0.6742757778651124  1.0000
  H   H87       1.0  0.10459079592372576  0.5109265825168527  0.8257242217153666  1.0000
  H   H88       1.0  0.8954092041708444  0.5109265825168527  0.6742757785864774  1.0000
  C   C1        1.0  0.28957375839174276  0.5585832016110619  0.08420582891742444  1.0000
  C   C2        1.0  0.7104262412159547  0.5585832016110619  0.41579417124268575  1.0000
  C   C3        1.0  0.7895737584522547  0.058583201813947695  0.08420582884274552  1.0000
  C   C4        1.0  0.21042624115544273  0.058583201813947695  0.4157941713173646  1.0000
  C   C5        1.0  0.7104262414602529  0.44141679798316646  0.9157941709155308  1.0000
  C   C6        1.0  0.289573758636041  0.44141679798316646  0.5842058285902694  1.0000
  C   C7        1.0  0.210426241399741  0.941416798395816  0.9157941709902097  1.0000
  C   C8        1.0  0.7895737586965529  0.941416798395816  0.5842058285155904  1.0000
  C   C9        1.0  0.37843983233697565  0.6034520463451253  0.07544930831819031  1.0000
  C   C10       1.0  0.6215601672724458  0.6034520463451253  0.4245506910458758  1.0000
  C   C11       1.0  0.8784398323974875  0.10345204593247567  0.0754493082435114  1.0000
  C   C12       1.0  0.12156016721193381  0.10345204593247567  0.4245506911205547  1.0000
  C   C13       1.0  0.6215601675150202  0.3965479538646385  0.9245506915147647  1.0000
  C   C14       1.0  0.37843983257954994  0.3965479538646385  0.5754493087870793  1.0000
  C   C15       1.0  0.12156016745450818  0.8965479536617526  0.9245506915894437  1.0000
  C   C16       1.0  0.878439832640062  0.8965479536617526  0.5754493087124004  1.0000
  C   C17       1.0  0.4623676345129064  0.5486225104004683  0.10744537437431773  1.0000
  C   C18       1.0  0.5376323658506919  0.5486225104004683  0.39255462594521345  1.0000
  C   C19       1.0  0.9623676345734182  0.04862251060335408  0.1074453742996388  1.0000
  C   C20       1.0  0.0376323657901799  0.04862251060335408  0.3925546260198923  1.0000
  C   C21       1.0  0.5376323653390893  0.45137748919376003  0.8925546254586374  1.0000
  C   C22       1.0  0.4623676347572046  0.45137748919376003  0.6074453740471627  1.0000
  C   C23       1.0  0.037632365278577384  0.9513774896064097  0.8925546255333162  1.0000
  C   C24       1.0  0.9623676340618158  0.9513774896064097  0.6074453738130628  1.0000
  C   C25       1.0  0.42414872914227364  0.4719359822322356  0.12997346525360745  1.0000
  C   C26       1.0  0.5758512704654238  0.4719359822322356  0.3700265349065027  1.0000
  C   C27       1.0  0.9241487292027857  0.9719359826448852  0.12997346517892852  1.0000
  C   C28       1.0  0.07585127040663577  0.9719359826448852  0.37002653418513765  1.0000
  C   C29       1.0  0.575851270709722  0.5280640173619927  0.8700265345793476  1.0000
  C   C30       1.0  0.424148729384848  0.5280640173619927  0.6299734657224965  1.0000
  C   C31       1.0  0.07585127064921011  0.02806401756487852  0.8700265346540266  1.0000
  C   C32       1.0  0.9241487294453599  0.02806401756487852  0.6299734656478175  1.0000
  C   C33       1.0  0.2541245812148516  0.41509761176858867  0.13922713966109268  1.0000
  C   C34       1.0  0.7458754191487468  0.41509761176858867  0.36077286065843844  1.0000
  C   C35       1.0  0.7541245812753635  0.9150976115657027  0.13922713958641375  1.0000
  C   C36       1.0  0.24587541908823474  0.9150976115657027  0.36077286073311743  1.0000
  C   C37       1.0  0.7458754193930449  0.5849023884411751  0.8607728603312834  1.0000
  C   C38       1.0  0.25412458070324906  0.5849023884411751  0.6392271391745166  1.0000
  C   C39       1.0  0.24587541933253299  0.08490238802852552  0.8607728604059623  1.0000
  C   C40       1.0  0.754124580762037  0.08490238802852552  0.6392271398958818  1.0000
  C   C41       1.0  0.2428119321616693  0.4018261995621418  0.24607972104207762  1.0000
  C   C42       1.0  0.7571880674460282  0.4018261995621418  0.2539202791180325  1.0000
  C   C43       1.0  0.7428119322221812  0.9018261999747914  0.2460797209673987  1.0000
  C   C44       1.0  0.2571880673855162  0.9018261999747914  0.25392027919271143  1.0000
  C   C45       1.0  0.7571880676886025  0.5981738000320865  0.7539202795869215  1.0000
  C   C46       1.0  0.24281193240596757  0.5981738000320865  0.7460797207149226  1.0000
  C   C47       1.0  0.2571880676280906  0.09817380023497238  0.7539202796616005  1.0000
  C   C48       1.0  0.7428119324664795  0.09817380023497238  0.7460797206402437  1.0000
  C   C49       1.0  0.18265283306369479  0.3364478504120939  0.26788441044375544  1.0000
  C   C50       1.0  0.8173471665440025  0.3364478504120939  0.23211558971635468  1.0000
  C   C51       1.0  0.6826528331242068  0.836447850209208  0.2678844103690765  1.0000
  C   C52       1.0  0.31734716648349065  0.836447850209208  0.2321155897910336  1.0000
  C   C53       1.0  0.8173471667883009  0.6635521497976699  0.7321155893891996  1.0000
  C   C54       1.0  0.18265283330799306  0.6635521497976699  0.7678844101166004  1.0000
  C   C55       1.0  0.317347166727789  0.16355215000055567  0.7321155894638784  1.0000
  C   C56       1.0  0.6826528333667812  0.16355215000055567  0.7678844108379654  1.0000
  C   C57       1.0  0.13482278362920083  0.2855929575751501  0.18375637946338483  1.0000
  C   C58       1.0  0.8651772167343973  0.2855929575751501  0.3162436208561463  1.0000
  C   C59       1.0  0.6348227836897127  0.7855929579877997  0.1837563793887059  1.0000
  C   C60       1.0  0.3651772166738855  0.7855929579877997  0.31624362093082525  1.0000
  C   C61       1.0  0.8651772169786957  0.7144070420190782  0.8162436205289912  1.0000
  C   C62       1.0  0.13482278311759832  0.7144070420190782  0.6837563789768087  1.0000
  C   C63       1.0  0.3651772169181838  0.2144070422219641  0.8162436206036702  1.0000
  C   C64       1.0  0.6348227831763864  0.2144070422219641  0.6837563796981739  1.0000
  C   C65       1.0  0.14742625376658117  0.2992127179309249  0.07729286942137087  1.0000
  C   C66       1.0  0.8525737465970169  0.2992127179309249  0.4227071308981603  1.0000
  C   C67       1.0  0.6474262530711924  0.7992127183435745  0.07729286918727096  1.0000
  C   C68       1.0  0.35257374653650514  0.7992127183435745  0.42270713097283913  1.0000
  C   C69       1.0  0.8525737468413154  0.7007872816633034  0.9227071305710052  1.0000
  C   C70       1.0  0.14742625325497866  0.7007872816633034  0.5772928689347948  1.0000
  C   C71       1.0  0.3525737467808034  0.20078728186618922  0.9227071306456842  1.0000
  C   C72       1.0  0.6474262533137668  0.20078728186618922  0.5772928696561599  1.0000
  C   C73       1.0  0.20731795368314457  0.36441062100750404  0.05442991297521093  1.0000
  C   C74       1.0  0.7926820466821775  0.36441062100750404  0.4455700865482762  1.0000
  C   C75       1.0  0.7073179537419326  0.8644106208046182  0.05442991369657604  1.0000
  C   C76       1.0  0.2926820466216656  0.8644106208046182  0.44557008662295505  1.0000
  C   C77       1.0  0.7926820461688511  0.6355893792022598  0.9455700868577442  1.0000
  C   C78       1.0  0.20731795392571895  0.6355893792022598  0.5544299134441  1.0000
  C   C79       1.0  0.2926820461083392  0.13558937940514562  0.9455700869324232  1.0000
  C   C80       1.0  0.7073179532303301  0.13558937940514562  0.55442991321  1.0000
  C   C81       1.0  0.5657065445405046  0.566908751125509  0.11910504419739808  1.0000
  C   C82       1.0  0.43429345582309364  0.566908751125509  0.3808949561221331  1.0000
  C   C83       1.0  0.06570654447999262  0.06690875132839487  0.11910504427207701  1.0000
  C   C84       1.0  0.9342934558836057  0.06690875132839487  0.3808949560474542  1.0000
  C   C85       1.0  0.43429345531149116  0.43309124846871927  0.880894955635557  1.0000
  C   C86       1.0  0.5657065447848029  0.43309124846871927  0.619105043870243  1.0000
  C   C87       1.0  0.934293455372003  0.9330912488813689  0.880894955560878  1.0000
  C   C88       1.0  0.06570654472429087  0.9330912488813689  0.6191050439449219  1.0000
  C   C89       1.0  0.38064108711565353  0.6836563530282195  0.03681403607700431  1.0000
  C   C90       1.0  0.6193589132479447  0.6836563530282195  0.46318596424252684  1.0000
  C   C91       1.0  0.8806410871761655  0.18365635323110538  0.0368140360023254  1.0000
  C   C92       1.0  0.11935891318743279  0.18365635323110538  0.46318596431720577  1.0000
  C   C93       1.0  0.6193589127363424  0.31634364718154423  0.9631859637559508  1.0000
  C   C94       1.0  0.38064108660405094  0.31634364718154423  0.5368140355904283  1.0000
  C   C95       1.0  0.11935891267583028  0.8163436469786584  0.9631859638306297  1.0000
  C   C96       1.0  0.880641086662839  0.8163436469786584  0.5368140363117934  1.0000
  C   C97       1.0  0.4798794661910475  0.13567618098789735  0.18924513876507396  1.0000
  C   C98       1.0  0.52012053341665  0.13567618098789735  0.3107548613950362  1.0000
  C   C99       1.0  0.9798794662515594  0.635676181400547  0.18924513869039503  1.0000
  C   C100      1.0  0.020120534113762717  0.635676181400547  0.310754860833092  1.0000
  C   C101      1.0  0.5201205336609482  0.8643238186063309  0.8107548610678811  1.0000
  C   C102      1.0  0.47987946643362184  0.8643238186063309  0.689245139233963  1.0000
  C   C103      1.0  0.020120533600436297  0.36432381880921677  0.8107548611425601  1.0000
  C   C104      1.0  0.9798794664941338  0.36432381880921677  0.6892451391592841  1.0000
  C   C105      1.0  0.47865487140294305  0.9904370563331566  0.1895470106263202  1.0000
  C   C106      1.0  0.5213451282047543  0.9904370563331566  0.3104529895337899  1.0000
  C   C107      1.0  0.978654871463455  0.4904370565360424  0.18954701055164128  1.0000
  C   C108      1.0  0.021345128144242387  0.4904370565360424  0.31045298960846884  1.0000
  C   C109      1.0  0.5213451284490526  0.009562943876607178  0.8104529892066349  1.0000
  C   C110      1.0  0.4786548716472414  0.009562943876607178  0.6895470102991652  1.0000
  C   C111      1.0  0.021345128388540646  0.5095629436737212  0.8104529892813138  1.0000
  C   C112      1.0  0.9786548717060294  0.5095629436737212  0.6895470110205303  1.0000
  N   N1        1.0  0.3191616632470746  0.48018741942791454  0.11723233989091085  1.0000
  N   N2        1.0  0.6808383363623468  0.48018741942791454  0.3827676594731553  1.0000
  N   N3        1.0  0.8191616633058626  0.9801874192250287  0.11723234061227597  1.0000
  N   N4        1.0  0.1808383363018348  0.9801874192250287  0.38276765954783415  1.0000
  N   N5        1.0  0.6808383366049211  0.5198125807818492  0.8827676599420443  1.0000
  N   N6        1.0  0.3191616634896489  0.5198125807818492  0.6172323403597999  1.0000
  N   N7        1.0  0.18083833654440917  0.019812580984735047  0.8827676600167231  1.0000
  N   N8        1.0  0.819161663550161  0.019812580984735047  0.617232340285121  1.0000
  N   N9        1.0  0.6518926714564877  0.5828997579043191  0.132443992342084  1.0000
  N   N10       1.0  0.34810732815120976  0.5828997579043191  0.3675560078180261  1.0000
  N   N11       1.0  0.15189267139597573  0.08289975749166946  0.13244399241676297  1.0000
  N   N12       1.0  0.8481073282117216  0.08289975749166946  0.36755600774334724  1.0000
  N   N13       1.0  0.34810732839550806  0.4171002423054447  0.8675560074908711  1.0000
  N   N14       1.0  0.6518926717007858  0.4171002423054447  0.632443992014929  1.0000
  N   N15       1.0  0.84810732845602  0.9171002421025589  0.8675560074161922  1.0000
  N   N16       1.0  0.151892671640274  0.9171002421025589  0.6324439920896079  1.0000
  N   N17       1.0  0.3811335302939377  0.7507018627991722  0.002417331371021741  1.0000
  N   N18       1.0  0.6188664693137597  0.7507018627991722  0.4975826687890884  1.0000
  N   N19       1.0  0.8811335303544496  0.25070186300205805  0.002417331296342831  1.0000
  N   N20       1.0  0.11886646925324774  0.25070186300205805  0.4975826688637673  1.0000
  N   N21       1.0  0.618866469558058  0.2492981374105916  0.9975826684619333  1.0000
  N   N22       1.0  0.381133530538236  0.2492981374105916  0.5024173310438668  1.0000
  N   N23       1.0  0.11886646949754598  0.7492981372077057  0.9975826685366121  1.0000
  N   N24       1.0  0.881133530598748  0.7492981372077057  0.5024173309691877  1.0000
  N   N25       1.0  0.1933488577083623  0.5832181510193635  0.062389970275696545  1.0000
  N   N26       1.0  0.8066511426569598  0.5832181510193635  0.4376100292477905  1.0000
  N   N27       1.0  0.6933488570112495  0.08321815122224932  0.062389970837640675  1.0000
  N   N28       1.0  0.3066511425964479  0.08321815122224932  0.4376100293224694  1.0000
  N   N29       1.0  0.8066511428995342  0.4167818485748648  0.9376100297166796  1.0000
  N   N30       1.0  0.19334885719503592  0.4167818485748648  0.5623899705851646  1.0000
  N   N31       1.0  0.30665114283902223  0.9167818489875144  0.9376100297913584  1.0000
  N   N32       1.0  0.6933488572555478  0.9167818489875144  0.5623899705104857  1.0000
  O   O1        1.0  0.5105079027286444  0.06269571625237207  0.13922235109176506  1.0000
  O   O2        1.0  0.48949209688077683  0.06269571625237207  0.3607776482723011  1.0000
  O   O3        1.0  0.010507903424033354  0.5626957160494862  0.139222351325865  1.0000
  O   O4        1.0  0.9894920969395649  0.5626957160494862  0.36077764899366616  1.0000
  O   O5        1.0  0.4894920971233511  0.9373042839573916  0.86077764874119  1.0000
  O   O6        1.0  0.5105079029712188  0.9373042839573916  0.6392223515606541  1.0000
  O   O7        1.0  0.9894920971838632  0.43730428416027756  0.8607776486665112  1.0000
  O   O8        1.0  0.010507902910706943  0.43730428416027756  0.6392223516353329  1.0000
  S   S1        1.0  0.49016645419366706  0.3831836148818479  0.16182585006310082  1.0000
  S   S2        1.0  0.5098335454157543  0.3831836148818479  0.3381741493009653  1.0000
  S   S3        1.0  0.9901664542541792  0.883183614678962  0.16182584998842192  1.0000
  S   S4        1.0  0.009833545355242343  0.883183614678962  0.33817414937564416  1.0000
  S   S5        1.0  0.5098335456583286  0.6168163853279159  0.8381741497698543  1.0000
  S   S6        1.0  0.49016645443624146  0.6168163853279159  0.6618258505319898  1.0000
  S   S7        1.0  0.009833545597816703  0.11681638491526629  0.8381741498445331  1.0000
  S   S8        1.0  0.9901664544967533  0.11681638491526629  0.6618258504573108  1.0000
