data_image0
_chemical_formula_structural       H128C128N4O8Br4
_chemical_formula_sum              "H128 C128 N4 O8 Br4"
_cell_length_a       10.218055462060924
_cell_length_b       10.885878640695877
_cell_length_c       23.316251551805806
_cell_angle_alpha    90.0
_cell_angle_beta     90.0
_cell_angle_gamma    90.0

_space_group_name_H-M_alt    "P 1"
_space_group_IT_number       1

loop_
  _space_group_symop_operation_xyz
  'x, y, z'

loop_
  _atom_site_type_symbol
  _atom_site_label
  _atom_site_symmetry_multiplicity
  _atom_site_fract_x
  _atom_site_fract_y
  _atom_site_fract_z
  _atom_site_occupancy
  H   H1        1.0  0.6928984410280338  0.37155563583808643  0.2638491232748576  1.0000
  H   H2        1.0  0.8071015586694247  0.628444364097989  0.7638491230216907  1.0000
  H   H3        1.0  0.30710155877027184  0.8715556367247453  0.2361508769008609  1.0000
  H   H4        1.0  0.192898441128881  0.12844436412995125  0.7361508770765794  1.0000
  H   H5        1.0  0.36218942672029253  0.7090877093873759  0.35029238734420154  1.0000
  H   H6        1.0  0.13781057317886028  0.29091229054869944  0.8502923875199201  1.0000
  H   H7        1.0  0.637810573078013  0.20908770941933824  0.14970761283151696  1.0000
  H   H8        1.0  0.8621894266194453  0.7909122905167372  0.6497076125783501  1.0000
  H   H9        1.0  0.5768740287118295  0.578316732878584  0.4925066734884591  1.0000
  H   H10       1.0  0.9231259709856289  0.4216832670574913  0.9925066736641777  1.0000
  H   H11       1.0  0.4231259710864761  0.07831673291054632  0.007493326258374002  1.0000
  H   H12       1.0  0.0768740288126767  0.9216832670255289  0.5074933264340926  1.0000
  H   H13       1.0  0.7148008617802951  0.6881202535178321  0.5627234313735061  1.0000
  H   H14       1.0  0.7851991379171633  0.31187974641824323  0.0627234311977876  1.0000
  H   H15       1.0  0.2851991380180105  0.18812025354979445  0.9372765687247641  1.0000
  H   H16       1.0  0.21480086188114228  0.8118797463862808  0.43727656854904556  1.0000
  H   H17       1.0  0.942180383121373  0.7507922823469527  0.5373742426890915  1.0000
  H   H18       1.0  0.5578196165760855  0.24920771758912263  0.03737424251337301  1.0000
  H   H19       1.0  0.0578196166769326  0.25079228237891504  0.9626257574091788  1.0000
  H   H20       1.0  0.44218038322222025  0.7492077175571603  0.46262575723346017  1.0000
  H   H21       1.0  0.032775128422766746  0.6985444465247042  0.4415966107211844  1.0000
  H   H22       1.0  0.4672248714763861  0.30145555341137115  0.9415966108969029  1.0000
  H   H23       1.0  0.9672248713755389  0.1985444465566665  0.05840338945453412  1.0000
  H   H24       1.0  0.5327751293005794  0.8014555533794089  0.5584033892013672  1.0000
  H   H25       1.0  0.00872024528843458  0.5994057140786652  0.3470286852079075  1.0000
  H   H26       1.0  0.49127975461071827  0.40059428585741025  0.847028685383626  1.0000
  H   H27       1.0  0.991279754509871  0.09940571411062744  0.1529713149678111  1.0000
  H   H28       1.0  0.5087202451875874  0.9005942858254479  0.6529713147146442  1.0000
  H   H29       1.0  0.8792891214340554  0.4689972567683922  0.2804120776220409  1.0000
  H   H30       1.0  0.6207108782634032  0.5310027431676831  0.7804120777977595  1.0000
  H   H31       1.0  0.12071087836425033  0.9689972567364298  0.21958792212479228  1.0000
  H   H32       1.0  0.37928912153490246  0.031002743199645477  0.7195879223005108  1.0000
  H   H33       1.0  0.20320928064146573  0.5909355810702646  0.3855800135808587  1.0000
  H   H34       1.0  0.29679071925768713  0.40906441886581074  0.8855800133276918  1.0000
  H   H35       1.0  0.79679071915684  0.09093558110222696  0.11441998659485983  1.0000
  H   H36       1.0  0.7032092805406186  0.9090644188338485  0.6144199867705784  1.0000
  H   H37       1.0  0.14128804207026843  0.38450090141115467  0.4215060443212126  1.0000
  H   H38       1.0  0.3587119578288844  0.6154990985249206  0.9215060440680458  1.0000
  H   H39       1.0  0.8587119577280373  0.8845009013791925  0.07849395585450591  1.0000
  H   H40       1.0  0.6412880419694212  0.11549909855688296  0.5784939560302245  1.0000
  H   H41       1.0  0.20786678814636247  0.1779003931534004  0.4567914557936361  1.0000
  H   H42       1.0  0.29213321175279033  0.822099606782675  0.9567914555404692  1.0000
  H   H43       1.0  0.7921332126306029  0.677900393121438  0.04320854438208245  1.0000
  H   H44       1.0  0.7078667880455153  0.32209960681463734  0.5432085441289156  1.0000
  H   H45       1.0  0.382404976613025  0.03468042612459868  0.4874831627521921  1.0000
  H   H46       1.0  0.11759502328612782  0.965319574730098  0.9874831629279106  1.0000
  H   H47       1.0  0.6175950241639404  0.5346804260926363  0.012516836994641062  1.0000
  H   H48       1.0  0.8824049765121779  0.465319573843439  0.5125168371703596  1.0000
  H   H49       1.0  0.6167989617399106  0.09415545348523925  0.47714687522910887  1.0000
  H   H50       1.0  0.8832010379575479  0.9058445464508361  0.9771468754048274  1.0000
  H   H51       1.0  0.38320103805839506  0.5941554534532769  0.022853124946609682  1.0000
  H   H52       1.0  0.11679896184075773  0.4058445464827984  0.5228531246934428  1.0000
  H   H53       1.0  0.6770075251289289  0.29390693627974135  0.43470258662632294  1.0000
  H   H54       1.0  0.8229924755471894  0.7060930636563341  0.9347025868020414  1.0000
  H   H55       1.0  0.32299247466937675  0.7939069362477791  0.06529741312051017  1.0000
  H   H56       1.0  0.17700752522977606  0.20609306368829636  0.5652974132962287  1.0000
  H   H57       1.0  0.7232974363313289  0.8622979393604508  0.4002776852558522  1.0000
  H   H58       1.0  0.7767025633661294  0.13770206057562445  0.9002776854315707  1.0000
  H   H59       1.0  0.27670256346697664  0.3622979393924132  0.0997223144909809  1.0000
  H   H60       1.0  0.22329743643217617  0.6377020605436622  0.5997223146666995  1.0000
  H   H61       1.0  0.8591798324638665  0.9498467318334006  0.47629903654645966  1.0000
  H   H62       1.0  0.640820167233592  0.050153268102674675  0.9762990362932928  1.0000
  H   H63       1.0  0.14082016733443922  0.449846731865363  0.023700963629258866  1.0000
  H   H64       1.0  0.3591798325647136  0.5501532680707124  0.523700963376092  1.0000
  H   H65       1.0  0.969785658023953  0.15198562969596333  0.46295779645437857  1.0000
  H   H66       1.0  0.5302143416735056  0.848014370240112  0.9629577966300972  1.0000
  H   H67       1.0  0.030214341774352685  0.651985629664001  0.03704220372133998  1.0000
  H   H68       1.0  0.46978565812480017  0.3480143702720743  0.5370422034681731  1.0000
  H   H69       1.0  0.9382364389776335  0.2676159698408848  0.3716298805898287  1.0000
  H   H70       1.0  0.5617635616984846  0.7323840300951905  0.8716298807655473  1.0000
  H   H71       1.0  0.06176356082067204  0.7676159707275437  0.12837011915700441  1.0000
  H   H72       1.0  0.4382364390784808  0.2323840301271528  0.6283701193327229  1.0000
  H   H73       1.0  0.8024322906098464  0.18189347459723515  0.29439078381655165  1.0000
  H   H74       1.0  0.697567709087612  0.8181065253388401  0.7943907839922703  1.0000
  H   H75       1.0  0.1975677091884592  0.6818934745652728  0.20560921635916687  1.0000
  H   H76       1.0  0.3024322907106936  0.31810652537080253  0.705609216106  1.0000
  H   H77       1.0  0.5234391376968737  0.009693102732702779  0.23651879624591257  1.0000
  H   H78       1.0  0.9765608620005849  0.9903068972033725  0.7365187959927457  1.0000
  H   H79       1.0  0.476560862101432  0.5096931027007404  0.26348120392980595  1.0000
  H   H80       1.0  0.023439137797720833  0.49030689723533494  0.7634812036766392  1.0000
  H   H81       1.0  0.6255573003819627  0.13577601577097104  0.25526014877546005  1.0000
  H   H82       1.0  0.8744426993154959  0.8642239841651044  0.7552601489511784  1.0000
  H   H83       1.0  0.37444269941634295  0.6357760157390088  0.24473985140025856  1.0000
  H   H84       1.0  0.12555730048280986  0.36422398419706664  0.7447398511470917  1.0000
  H   H85       1.0  0.39890243844672696  0.15216943755071194  0.29514949796752465  1.0000
  H   H86       1.0  0.10109756145242586  0.8478305623853634  0.7951494977143577  1.0000
  H   H87       1.0  0.6010975613515788  0.6521694375187496  0.20485050220819392  1.0000
  H   H88       1.0  0.8989024393245395  0.34783056241732574  0.7048505019550271  1.0000
  H   H89       1.0  0.5168293516910364  0.15193547113568334  0.350864401244908  1.0000
  H   H90       1.0  0.9831706480064221  0.848064528800392  0.8508644009917411  1.0000
  H   H91       1.0  0.48317064810726934  0.6519354711037211  0.14913559893081058  1.0000
  H   H92       1.0  0.016829351791883503  0.34806452883235434  0.6491355991065291  1.0000
  H   H93       1.0  0.4202174607431582  0.018395408088730913  0.33631132528215874  1.0000
  H   H94       1.0  0.07978253915599458  0.9816045918473445  0.8363113254578772  1.0000
  H   H95       1.0  0.5797825400338071  0.5183954080567686  0.16368867446467442  1.0000
  H   H96       1.0  0.920217460642311  0.4816045918793068  0.6636886746403929  1.0000
  H   H97       1.0  0.6809101962533971  0.7765883626881579  0.317328925001539  1.0000
  H   H98       1.0  0.8190898034440613  0.2234116372479175  0.8173289251772575  1.0000
  H   H99       1.0  0.31908980354490857  0.2765883627201202  0.18267107474529423  1.0000
  H   H100      1.0  0.18091019635424427  0.7234116372159551  0.6826710749210128  1.0000
  H   H101      1.0  0.5472489458255653  0.8212292259606273  0.27222000611450875  1.0000
  H   H102      1.0  0.9527510538718932  0.17877077397544802  0.772220005861342  1.0000
  H   H103      1.0  0.45275105397274035  0.32122922599258963  0.2277799940612098  1.0000
  H   H104      1.0  0.04724894592641245  0.6787707739434857  0.7277799942369284  1.0000
  H   H105      1.0  0.5463072079346595  0.8612509747215661  0.34654994487628943  1.0000
  H   H106      1.0  0.9536927927414587  0.13874902521450927  0.8465499446231226  1.0000
  H   H107      1.0  0.45369279284230596  0.3612509747535284  0.1534500552994291  1.0000
  H   H108      1.0  0.04630720803550663  0.6387490261011682  0.6534500550462623  1.0000
  H   H109      1.0  0.6988139882889026  0.9101294206019794  0.20732524991246337  1.0000
  H   H110      1.0  0.8011860114085559  0.089870579334096  0.7073252500881819  1.0000
  H   H111      1.0  0.30118601150940305  0.4101294206339417  0.2926747502632552  1.0000
  H   H112      1.0  0.1988139883897498  0.5898705793021337  0.7926747500100882  1.0000
  H   H113      1.0  0.8024169726268328  0.032441102979026505  0.22968067393256622  1.0000
  H   H114      1.0  0.6975830270706256  0.9675588969570489  0.7296806741082847  1.0000
  H   H115      1.0  0.19758302717147283  0.5324411029470641  0.27031932581426693  1.0000
  H   H116      1.0  0.30241697272768  0.46755889698901115  0.7703193259899854  1.0000
  H   H117      1.0  0.94066828328424  0.8739985199202814  0.2871222068060727  1.0000
  H   H118      1.0  0.5593317164132185  0.12600148001579398  0.7871222065529058  1.0000
  H   H119      1.0  0.05933171651406577  0.37399851995224365  0.21287779336964585  1.0000
  H   H120      1.0  0.440668283385087  0.6260014799838316  0.712877793116479  1.0000
  H   H121      1.0  0.8139500300111416  0.7210525984238088  0.19034502351885435  1.0000
  H   H122      1.0  0.6860499696863168  0.27894740151226666  0.6903450232656875  1.0000
  H   H123      1.0  0.1860499697871639  0.22105259845577105  0.3096549766568642  1.0000
  H   H124      1.0  0.3139500301119889  0.7789474014803043  0.8096549764036973  1.0000
  H   H125      1.0  0.9621026100808794  0.683917242303932  0.2334287386592582  1.0000
  H   H126      1.0  0.5378973896165792  0.3160827576321433  0.7334287388349767  1.0000
  H   H127      1.0  0.037897389717426365  0.1839172423358944  0.266571261087575  1.0000
  H   H128      1.0  0.46210261018172644  0.816082757600181  0.7665712612632936  1.0000
  C   C1        1.0  0.72520347707189  0.572163767903428  0.42607294778609456  1.0000
  C   C2        1.0  0.7747965236042282  0.42783623203264726  0.9260729479618132  1.0000
  C   C3        1.0  0.2747965237050754  0.07216376793539037  0.07392705196073862  1.0000
  C   C4        1.0  0.2252034771727372  0.927836232000685  0.5739270521364571  1.0000
  C   C5        1.0  0.6758259901446233  0.605967505952126  0.4808766818752061  1.0000
  C   C6        1.0  0.8241740095528353  0.3940324939839493  0.9808766816220392  1.0000
  C   C7        1.0  0.32417400965368237  0.10596750598408838  0.019123318300512462  1.0000
  C   C8        1.0  0.17582599024547044  0.8940324939519869  0.5191233180473456  1.0000
  C   C9        1.0  0.7525772871905116  0.6686654591929836  0.5198849494768463  1.0000
  C   C10       1.0  0.7474227125069468  0.33133454074309177  0.01988494973001317  1.0000
  C   C11       1.0  0.24742271260779405  0.16866545922494594  0.9801150506214239  1.0000
  C   C12       1.0  0.2525772872913588  0.8313345407111294  0.4801150504457054  1.0000
  C   C13       1.0  0.8821982483330401  0.7030249217908588  0.5058192970596335  1.0000
  C   C14       1.0  0.6178017513644183  0.2969750781452164  0.005819296883914923  1.0000
  C   C15       1.0  0.11780175146526553  0.20302492182282125  0.9941807030386368  1.0000
  C   C16       1.0  0.3821982484338873  0.7969750781132542  0.49418070286291826  1.0000
  C   C17       1.0  0.9328012854686119  0.6728938215989287  0.45278280286791484  1.0000
  C   C18       1.0  0.5671987142288466  0.32710617833714656  0.9527828026147479  1.0000
  C   C19       1.0  0.06719871432969385  0.1728938216308911  0.04721719730780375  1.0000
  C   C20       1.0  0.43280128556945896  0.8271061783051843  0.5472171970546369  1.0000
  C   C21       1.0  0.8575356067046326  0.6062713904716203  0.4122308913439215  1.0000
  C   C22       1.0  0.6424643939714857  0.39372860946445515  0.9122308915196401  1.0000
  C   C23       1.0  0.142464393093673  0.10627139050358256  0.08776910883179703  1.0000
  C   C24       1.0  0.3575356068054798  0.8937286094324928  0.5877691085786302  1.0000
  C   C25       1.0  0.9102288321425971  0.5696523307560585  0.35861446173805805  1.0000
  C   C26       1.0  0.5897711675548614  0.4303476691800168  0.8586144619137765  1.0000
  C   C27       1.0  0.08977116765570858  0.06965233078802086  0.14138553843766047  1.0000
  C   C28       1.0  0.4102288322434442  0.9303476691480546  0.6413855381844935  1.0000
  C   C29       1.0  0.8383110907750254  0.49907727518563477  0.3212910764560615  1.0000
  C   C30       1.0  0.661688908922433  0.5009227247504405  0.82129107663178  1.0000
  C   C31       1.0  0.1616889090232802  0.9990772751536725  0.1787089232907717  1.0000
  C   C32       1.0  0.33831109087587263  0.000922724782402856  0.6787089234664903  1.0000
  C   C33       1.0  0.7080674211314887  0.46431170940161215  0.3351412645655215  1.0000
  C   C34       1.0  0.7919325785659699  0.5356882905344632  0.8351412643123546  1.0000
  C   C35       1.0  0.291932578666817  0.9643117093696498  0.16485873561019707  1.0000
  C   C36       1.0  0.20806742123233582  0.03568829056642555  0.6648587353570302  1.0000
  C   C37       1.0  0.6494136291037128  0.502771963628113  0.38606196454862174  1.0000
  C   C38       1.0  0.8505863715724054  0.49722803630796225  0.8860619647243403  1.0000
  C   C39       1.0  0.3505863716732526  0.0027719636600754033  0.11393803562709677  1.0000
  C   C40       1.0  0.14941362920456003  0.9972280362759999  0.6139380353739299  1.0000
  C   C41       1.0  0.5106604900877654  0.47047873938750845  0.398218253022789  1.0000
  C   C42       1.0  0.9893395105883529  0.5295212605485669  0.8982182531985076  1.0000
  C   C43       1.0  0.48933951068919995  0.9704787393555462  0.10178174715292956  1.0000
  C   C44       1.0  0.010660490188612612  0.0295212605805292  0.6017817468997627  1.0000
  C   C45       1.0  0.4109452895015969  0.5534511314021839  0.3856941897379517  1.0000
  C   C46       1.0  0.0890547113762157  0.4465488694525128  0.8856941899136703  1.0000
  C   C47       1.0  0.5890547112753686  0.0534511314341462  0.11430581000888139  1.0000
  C   C48       1.0  0.9109452894007498  0.9465488694205505  0.6143058101846  1.0000
  C   C49       1.0  0.27770931959960826  0.5225077357316928  0.3954999854719703  1.0000
  C   C50       1.0  0.22229068029954457  0.47749226420438257  0.8954999852188034  1.0000
  C   C51       1.0  0.7222906801986974  0.022507735763655126  0.10450001470374827  1.0000
  C   C52       1.0  0.777709319498761  0.9774922641724202  0.6045000148794668  1.0000
  C   C53       1.0  0.24405640478849172  0.40794244144872466  0.41536716047524064  1.0000
  C   C54       1.0  0.25594359511066106  0.5920575584873506  0.9153671606509591  1.0000
  C   C55       1.0  0.7559435950098139  0.9079424414167623  0.08463283927159251  1.0000
  C   C56       1.0  0.7440564056663044  0.09205755851931299  0.584632839447311  1.0000
  C   C57       1.0  0.34181670112950646  0.3204500229277778  0.4293899715293047  1.0000
  C   C58       1.0  0.15818329876964637  0.6795499770082976  0.9293899717050232  1.0000
  C   C59       1.0  0.6581832986687992  0.8204500228958155  0.07061002864641387  1.0000
  C   C60       1.0  0.8418167010286592  0.17954997704025988  0.570610028393247  1.0000
  C   C61       1.0  0.31056706941772116  0.20333133622537855  0.45212094047696777  1.0000
  C   C62       1.0  0.18943293048143167  0.7966686637106968  0.9521209406526863  1.0000
  C   C63       1.0  0.6894329303805844  0.7033313361934163  0.047879059698750746  1.0000
  C   C64       1.0  0.8105670693168741  0.29666866374265916  0.5478790594455839  1.0000
  C   C65       1.0  0.40770819511286394  0.12363565628671797  0.46949270364824947  1.0000
  C   C66       1.0  0.09229180478628891  0.8763643436493573  0.9694927033950826  1.0000
  C   C67       1.0  0.5922918046854417  0.6236356562547557  0.03050729652746905  1.0000
  C   C68       1.0  0.9077081959906765  0.3763643436813197  0.5305072967031876  1.0000
  C   C69       1.0  0.54040324604837  0.15758119639393142  0.46360536237922084  1.0000
  C   C70       1.0  0.9595967536490886  0.8424188035421439  0.9636053625549393  1.0000
  C   C71       1.0  0.4595967537499357  0.6575811963619691  0.03639463779649771  1.0000
  C   C72       1.0  0.04040324614921712  0.34241880357410626  0.5363946375433308  1.0000
  C   C73       1.0  0.5744645174216026  0.26931605585239093  0.43989451937464774  1.0000
  C   C74       1.0  0.9255354822758559  0.7306839440836844  0.9398945195503663  1.0000
  C   C75       1.0  0.42553548237670297  0.7693160558204285  0.06010548080107076  1.0000
  C   C76       1.0  0.07446451752244984  0.23068394411564672  0.5601054805479039  1.0000
  C   C77       1.0  0.47692639251119223  0.35401661705036686  0.4220979756601474  1.0000
  C   C78       1.0  0.02307360738796059  0.6459833828857086  0.9220979754069805  1.0000
  C   C79       1.0  0.5230736072871134  0.8540166170184045  0.07790202451557117  1.0000
  C   C80       1.0  0.9769263924103451  0.14598338291767082  0.5779020246912897  1.0000
  C   C81       1.0  0.7694348126403938  0.9509984349171674  0.39303318801646137  1.0000
  C   C82       1.0  0.7305651870570646  0.04900156501890793  0.8930331881921799  1.0000
  C   C83       1.0  0.2305651871579118  0.4509984349491298  0.10696681215925716  1.0000
  C   C84       1.0  0.269434812741241  0.5490015649869456  0.6069668119060904  1.0000
  C   C85       1.0  0.8477649012733799  0.0007413301458121094  0.4363794037559174  1.0000
  C   C86       1.0  0.6522350984240786  0.9992586697902633  0.936379403931636  1.0000
  C   C87       1.0  0.1522350985249257  0.5007413301138498  0.06362059599091577  1.0000
  C   C88       1.0  0.3477649013742271  0.49925866982222555  0.5636205961666343  1.0000
  C   C89       1.0  0.9092574203082363  0.11380251984150427  0.42889495671209205  1.0000
  C   C90       1.0  0.590742580367882  0.8861974800945711  0.9288949568878107  1.0000
  C   C91       1.0  0.09074258046872907  0.6138025198095419  0.07110504303474106  1.0000
  C   C92       1.0  0.4092574204090836  0.3861974801265334  0.5711050432104596  1.0000
  C   C93       1.0  0.8919034227048377  0.1784170266917328  0.3777785301564825  1.0000
  C   C94       1.0  0.6080965769926208  0.8215829732443426  0.8777785299033155  1.0000
  C   C95       1.0  0.10809657709346797  0.6784170266597704  0.12222147001923608  1.0000
  C   C96       1.0  0.3919034228056849  0.3215829732763049  0.6222214697660692  1.0000
  C   C97       1.0  0.8142001196695399  0.13012534465563808  0.3341459111765587  1.0000
  C   C98       1.0  0.6857998810065784  0.8698746552804373  0.8341459109233917  1.0000
  C   C99       1.0  0.18579988012876578  0.6301253446236758  0.1658540889991599  1.0000
  C   C100      1.0  0.3142001197703871  0.3698746553123996  0.6658540887459931  1.0000
  C   C101      1.0  0.7534429127523262  0.01652042301185381  0.34212765513683885  1.0000
  C   C102      1.0  0.7465570869451321  0.9834795769242216  0.8421276553125575  1.0000
  C   C103      1.0  0.24655708704597934  0.5165204229798914  0.15787234460999428  1.0000
  C   C104      1.0  0.2534429128531735  0.4834795769561838  0.6578723447857128  1.0000
  C   C105      1.0  0.5711743307393297  0.05702862217103636  0.2723532290724571  1.0000
  C   C106      1.0  0.9288256699367886  0.942971377765039  0.7723532288192902  1.0000
  C   C107      1.0  0.42882567003763583  0.557028622139074  0.2276467711032614  1.0000
  C   C108      1.0  0.07117432986151703  0.44297137779700135  0.7276467712789799  1.0000
  C   C109      1.0  0.47277566244738756  0.0959048786468248  0.31702834195179663  1.0000
  C   C110      1.0  0.02722433745176528  0.9040951212892506  0.8170283421275153  1.0000
  C   C111      1.0  0.5272243373509181  0.5959048786148624  0.1829716582239219  1.0000
  C   C112      1.0  0.9727756623465403  0.4040951213212129  0.682971657970755  1.0000
  C   C113      1.0  0.6077706539231713  0.8475960264251282  0.30888495365552077  1.0000
  C   C114      1.0  0.8922293457742873  0.15240397442956846  0.8088849534023539  1.0000
  C   C115      1.0  0.3922293458751344  0.3475960255384692  0.19111504652019776  1.0000
  C   C116      1.0  0.10777065402401848  0.6524039743976062  0.6911150462670309  1.0000
  C   C117      1.0  0.763644852875577  0.9417307071268868  0.24176744994687688  1.0000
  C   C118      1.0  0.7363551468218815  0.058269292809188605  0.7417674501225955  1.0000
  C   C119      1.0  0.2363551469227287  0.4417307071588491  0.25823254979995625  1.0000
  C   C120      1.0  0.26364485297642415  0.5582692927772263  0.7582325499756749  1.0000
  C   C121      1.0  0.8691587781036304  0.8513336457154898  0.25387222456611197  1.0000
  C   C122      1.0  0.630841221593828  0.1486663542205856  0.7538722247418305  1.0000
  C   C123      1.0  0.13084122169467519  0.3513336457474521  0.24612777518072115  1.0000
  C   C124      1.0  0.3691587782044776  0.6486663541886233  0.7461277753564397  1.0000
  C   C125      1.0  0.8816926932380241  0.7467262568600868  0.22454561825116845  1.0000
  C   C126      1.0  0.6183073064594343  0.25327374307598866  0.724545618426887  1.0000
  C   C127      1.0  0.11830730656028143  0.246726256892049  0.2754543814956647  1.0000
  C   C128      1.0  0.38169269333887135  0.7532737430440263  0.7754543816713833  1.0000
  N   N1        1.0  0.6742666797592806  0.9655939356795976  0.2935507975967906  1.0000
  N   N2        1.0  0.8257333209168377  0.034406064256477666  0.7935507977725091  1.0000
  N   N3        1.0  0.3257333200390251  0.46559393571156  0.20644920215004256  1.0000
  N   N4        1.0  0.17426667986012767  0.5344060642245153  0.7064492023257611  1.0000
  O   O1        1.0  0.6378363225957151  0.3930004211149758  0.2980575653234349  1.0000
  O   O2        1.0  0.8621636771017435  0.6069995788210995  0.7980575650702681  1.0000
  O   O3        1.0  0.3621636772025906  0.8930004210830136  0.2019424348522836  1.0000
  O   O4        1.0  0.13783632269656226  0.10699957885306184  0.7019424350280021  1.0000
  O   O5        1.0  0.4432594182735504  0.665026933419609  0.3634917761617478  1.0000
  O   O6        1.0  0.05674058260426216  0.33497306651646636  0.8634917759085808  1.0000
  O   O7        1.0  0.556740582503415  0.16502693345157132  0.13650822401397075  1.0000
  O   O8        1.0  0.9432594181727032  0.8349730664845041  0.6365082241896893  1.0000
  Br  Br1       1.0  0.20140177626173564  0.8044944288888537  0.31134698962525853  1.0000
  Br  Br2       1.0  0.29859822363741717  0.19550557104722163  0.8113469898009771  1.0000
  Br  Br3       1.0  0.7985982235365701  0.304494428920816  0.1886530101215746  1.0000
  Br  Br4       1.0  0.7014017771395482  0.6955055710152593  0.6886530102972931  1.0000
