data_image0
_chemical_formula_structural       H28C28N6O2Cl2
_chemical_formula_sum              "H28 C28 N6 O2 Cl2"
_cell_length_a       7.296209948607914
_cell_length_b       9.535938162697605
_cell_length_c       9.959876343726334
_cell_angle_alpha    95.35360673642938
_cell_angle_beta     99.68866023088674
_cell_angle_gamma    106.68280256469639

_space_group_name_H-M_alt    "P 1"
_space_group_IT_number       1

loop_
  _space_group_symop_operation_xyz
  'x, y, z'

loop_
  _atom_site_type_symbol
  _atom_site_label
  _atom_site_symmetry_multiplicity
  _atom_site_fract_x
  _atom_site_fract_y
  _atom_site_fract_z
  _atom_site_occupancy
  H   H1        1.0  0.6438065764820954  0.011887748026910906  0.44624547744276033  1.0000
  H   H2        1.0  0.3561934243186322  0.9881122525671538  0.5537545222216065  1.0000
  H   H3        1.0  0.8714198036357336  0.4952441697962011  0.6607131047697727  1.0000
  H   H4        1.0  0.12858019748708674  0.5047558309797862  0.33928689592461303  1.0000
  H   H5        1.0  0.7774438235932389  0.8191255672606447  0.4841229979861094  1.0000
  H   H6        1.0  0.22255617576551043  0.18087443241536363  0.5158770027361782  1.0000
  H   H7        1.0  0.4079263769552865  0.16614020432501278  0.083882615252565  1.0000
  H   H8        1.0  0.5920736220813703  0.8338597951690732  0.9161173844397037  1.0000
  H   H9        1.0  0.03574168775481968  0.6811968901872265  0.8520274126374604  1.0000
  H   H10       1.0  0.9642583116039296  0.31880310948878193  0.14797258808482716  1.0000
  H   H11       1.0  0.5265198938835771  0.4222936129951594  0.2091590571017128  1.0000
  H   H12       1.0  0.4734801054751722  0.577706386680849  0.7908409436205748  1.0000
  H   H13       1.0  0.6836742670167484  0.5952301329148357  0.4001731953429328  1.0000
  H   H14       1.0  0.31632573241365175  0.40476986767144274  0.5998268043345026  1.0000
  H   H15       1.0  0.7654908381956567  0.2685833827918636  0.5723326041101406  1.0000
  H   H16       1.0  0.2345091629271636  0.7314166179841236  0.4276673965842451  1.0000
  H   H17       1.0  0.9068172594659785  0.07572523993051858  0.6070439472589708  1.0000
  H   H18       1.0  0.0931827409410057  0.9242747595713536  0.3929560524202293  1.0000
  H   H19       1.0  0.14611828335619617  0.9436919109332561  0.9616040754053116  1.0000
  H   H20       1.0  0.8538817173728807  0.05630808875053865  0.03839592530390748  1.0000
  H   H21       1.0  0.9088397209505208  0.38865883508700927  0.9208515009226044  1.0000
  H   H22       1.0  0.09116027847987934  0.6113411654992693  0.07914849875483097  1.0000
  H   H23       1.0  0.9624002706172838  0.23399137816869595  0.8483651221428798  1.0000
  H   H24       1.0  0.03759972881311621  0.7660086224175826  0.1516348775345554  1.0000
  H   H25       1.0  0.46857834906317114  0.3794648537750408  0.9346106065092621  1.0000
  H   H26       1.0  0.5314216506893216  0.6205351469931601  0.0653893941981921  1.0000
  H   H27       1.0  0.25903489099369104  0.22795167910754063  0.851852995081607  1.0000
  H   H28       1.0  0.7409651083650584  0.7720483205684677  0.1481470056406806  1.0000
  C   C1        1.0  0.6560666268345935  0.36517279541888487  0.399069499731084  1.0000
  C   C2        1.0  0.3439333738944832  0.6348272042649097  0.600930500978135  1.0000
  C   C3        1.0  0.5201344104712674  0.07507332544428613  0.25878033446761456  1.0000
  C   C4        1.0  0.4798655892812253  0.924926675323915  0.7412196662398396  1.0000
  C   C5        1.0  0.6207239937544538  0.10336762577964208  0.39569499452102486  1.0000
  C   C6        1.0  0.3792760066525306  0.8966323737222301  0.6043050051581753  1.0000
  C   C7        1.0  0.8290297854217238  0.5708238169287654  0.5947970672277321  1.0000
  C   C8        1.0  0.17097021400867646  0.42917618365751325  0.4052029324497034  1.0000
  C   C9        1.0  0.8590874634252702  0.8408304651350187  0.5901100320321123  1.0000
  C   C10       1.0  0.1409125359334793  0.15916953454098964  0.40988996869017513  1.0000
  C   C11       1.0  0.8943531845887507  0.7250077334015085  0.6577409775837684  1.0000
  C   C12       1.0  0.1056468162119768  0.27499226719255637  0.3422590220805985  1.0000
  C   C13       1.0  0.48572386552562935  0.18888644511370029  0.19062423661662337  1.0000
  C   C14       1.0  0.5142761355971909  0.811113555662287  0.8093757640777623  1.0000
  C   C15       1.0  0.0007426042344593981  0.7650988378369478  0.7944182894567834  1.0000
  C   C16       1.0  0.9992573948021973  0.2349011616571382  0.20558171023548535  1.0000
  C   C17       1.0  0.5532787344753602  0.33254633589660526  0.2614049731220564  1.0000
  C   C18       1.0  0.4467212659316239  0.667453663605267  0.7385950265571437  1.0000
  C   C19       1.0  0.7239384174950596  0.5183145172541033  0.46535440560203756  1.0000
  C   C20       1.0  0.27606158186368973  0.48168548242190506  0.53464559512025  1.0000
  C   C21       1.0  0.6876507989382994  0.24730924929667591  0.46526343552860444  1.0000
  C   C22       1.0  0.3123492014686847  0.7526907502051963  0.5347365641505959  1.0000
  C   C23       1.0  0.9302977995117746  0.9847849956024145  0.6591584279528806  1.0000
  C   C24       1.0  0.06970219991862553  0.015215004983864017  0.34084157172455487  1.0000
  C   C25       1.0  0.06397907940189212  0.9125033754567686  0.8554306407834995  1.0000
  C   C26       1.0  0.936020921720928  0.08749662531921866  0.14456935991088624  1.0000
  C   C27       1.0  0.19961668836389757  0.4123360811292225  0.9293671953037183  1.0000
  C   C28       1.0  0.8003833127589225  0.5876639196467648  0.07063280539066748  1.0000
  N   N1        1.0  0.03162067804853348  0.023329738617888427  0.7902470525975901  1.0000
  N   N2        1.0  0.9683793209881232  0.9766702608761976  0.20975294709467865  1.0000
  N   N3        1.0  0.004725878175742051  0.34580889905884693  0.8784229154423541  1.0000
  N   N4        1.0  0.9952741208609147  0.654191100435239  0.12157708424991465  1.0000
  N   N5        1.0  0.3204251539681029  0.33669241406840533  0.895131264733305  1.0000
  N   N6        1.0  0.6795748467609739  0.6633075856153894  0.1048687359759141  1.0000
  O   O1        1.0  0.26394556792245955  0.5404792279203976  0.0001763114518255117  1.0000
  O   O2        1.0  0.7360544328782681  0.4595207726736673  0.9998236882125414  1.0000
  Cl  Cl1       1.0  0.43599339059423997  0.8945385678927044  0.1734886603027992  1.0000
  Cl  Cl2       1.0  0.5640066091582527  0.10546143287549649  0.826511340404655  1.0000
