data_image0
_chemical_formula_structural       H44B40C24O8I36
_chemical_formula_sum              "H44 B40 C24 O8 I36"
_cell_length_a       11.205592898992801
_cell_length_b       17.299381938071136
_cell_length_c       14.10097926810291
_cell_angle_alpha    90.0
_cell_angle_beta     100.36401930876832
_cell_angle_gamma    90.0

_space_group_name_H-M_alt    "P 1"
_space_group_IT_number       1

loop_
  _space_group_symop_operation_xyz
  'x, y, z'

loop_
  _atom_site_type_symbol
  _atom_site_label
  _atom_site_symmetry_multiplicity
  _atom_site_fract_x
  _atom_site_fract_y
  _atom_site_fract_z
  _atom_site_occupancy
  H   H1        1.0  0.20635561092714486  0.3546582491769696  0.40351198247192743  1.0000
  H   H2        1.0  0.293644388920971  0.854658249232719  0.096488017844676  1.0000
  H   H3        1.0  0.7936443894973856  0.6453417509345294  0.5964880174397298  1.0000
  H   H4        1.0  0.7063556107752607  0.1453417508787799  0.9035119827885308  1.0000
  H   H5        1.0  0.02748652790315466  0.256590040377762  0.4066184597047666  1.0000
  H   H6        1.0  0.4725134719449611  0.7565900404335115  0.09338154061183686  1.0000
  H   H7        1.0  0.9725134716291042  0.743409959733737  0.5933815402075077  1.0000
  H   H8        1.0  0.5274865284795692  0.24340995967798748  0.9066184592998204  1.0000
  H   H9        1.0  0.9966159857099537  0.4084112736103779  0.454146346920073  1.0000
  H   H10       1.0  0.5033840146296529  0.9084112736661273  0.045853653399821705  1.0000
  H   H11       1.0  0.0033840147145767544  0.5915887265011212  0.5458536529915842  1.0000
  H   H12       1.0  0.4966159857948775  0.09158872644537161  0.9541463465118354  1.0000
  H   H13       1.0  0.9030575057681711  0.041873627196230834  0.8743736032977734  1.0000
  H   H14       1.0  0.5969424945044749  0.5418736272519803  0.625626396930487  1.0000
  H   H15       1.0  0.09694249392806037  0.958126372915268  0.12562639733543332  1.0000
  H   H16       1.0  0.4030575059200554  0.4581263728595186  0.37437360298117006  1.0000
  H   H17       1.0  0.9606960850209718  0.038963027258022045  0.7635904464879595  1.0000
  H   H18       1.0  0.5393039152516742  0.5389630273137715  0.7364095537403011  1.0000
  H   H19       1.0  0.03930391540355851  0.9610369728534769  0.23640955342369768  1.0000
  H   H20       1.0  0.46069608517285604  0.46103697279772743  0.263590446171356  1.0000
  H   H21       1.0  0.8728795719396403  0.9613727657749116  0.794062706646157  1.0000
  H   H22       1.0  0.6271204281690332  0.46137276571916214  0.7059372928611711  1.0000
  H   H23       1.0  0.12712042759261866  0.038627234336587324  0.20593729326611732  1.0000
  H   H24       1.0  0.3728795722554971  0.5386272343923368  0.29406270705048604  1.0000
  H   H25       1.0  0.6395081483722164  0.13990582661647732  0.6113568252041739  1.0000
  H   H26       1.0  0.8604918519004298  0.6399058266722267  0.8886431750240869  1.0000
  H   H27       1.0  0.36049185205231415  0.8600941734950217  0.3886431747074834  1.0000
  H   H28       1.0  0.13950814763182898  0.36009417343927214  0.1113568248881874  1.0000
  H   H29       1.0  0.561053453960935  0.05143918280928013  0.6158234684733981  1.0000
  H   H30       1.0  0.9389465461477384  0.5514391828650296  0.8841765310339299  1.0000
  H   H31       1.0  0.438946545571324  0.9485608173022189  0.38417653143887615  1.0000
  H   H32       1.0  0.06105345427679184  0.44856081724646935  0.11582346887772732  1.0000
  H   H33       1.0  0.7300170679914366  0.08860134283912457  0.4717145328562062  1.0000
  H   H34       1.0  0.7699829312919256  0.5886013423168187  0.028285466743372838  1.0000
  H   H35       1.0  0.2699829315408222  0.9113986572723745  0.5282854670560679  1.0000
  H   H36       1.0  0.23001706824033322  0.41139865721662494  0.9717145331689013  1.0000
  H   H37       1.0  0.569476933970371  0.08919473340283071  0.44442405254782086  1.0000
  H   H38       1.0  0.9305230663692354  0.5891947334585802  0.05557594777207378  1.0000
  H   H39       1.0  0.4305230655618879  0.910805266130613  0.5555759473644534  1.0000
  H   H40       1.0  0.06947693421926757  0.41080526607486345  0.9444240528605161  1.0000
  H   H41       1.0  0.648783844244479  0.0005842665383181297  0.4752606338919868  1.0000
  H   H42       1.0  0.8512161560951277  0.5005842665940676  0.024739366427907864  1.0000
  H   H43       1.0  0.3512161561800514  0.9994157335731809  0.5247393660196704  1.0000
  H   H44       1.0  0.1487838443294028  0.4994157335174314  0.9752606334837494  1.0000
  B   B1        1.0  0.2254249880855271  0.23876599145486851  0.5021379902960257  1.0000
  B   B2        1.0  0.27457501258789985  0.738765991510618  0.9978620099283266  1.0000
  B   B3        1.0  0.7745750123390033  0.7612340080785751  0.4978620096156315  1.0000
  B   B4        1.0  0.7254249878366305  0.261234008600881  0.0021379899833305267  1.0000
  B   B5        1.0  0.30822304315231186  0.3168070801384409  0.5666381852108386  1.0000
  B   B6        1.0  0.19177695752111512  0.8168070801941905  0.9333618150135138  1.0000
  B   B7        1.0  0.6917769572722184  0.683192919973058  0.4333618147008185  1.0000
  B   B8        1.0  0.8082230429034153  0.18319291991730857  0.06663818489814347  1.0000
  B   B9        1.0  0.20713566958993784  0.39645441291208966  0.5701919221495836  1.0000
  B   B10       1.0  0.2928643310834891  0.8964544129678392  0.9298080780747687  1.0000
  B   B11       1.0  0.7928643308345926  0.603545586621354  0.42980807776207364  1.0000
  B   B12       1.0  0.7071356693410412  0.10354558714365984  0.07019192183688844  1.0000
  B   B13       1.0  0.06144697740861963  0.36810755625816477  0.5083596300573238  1.0000
  B   B14       1.0  0.438553022208563  0.8681075563139142  0.9916403694467129  1.0000
  B   B15       1.0  0.9385530221236393  0.6318924438533342  0.4916403698549504  1.0000
  B   B16       1.0  0.5614469782159672  0.13189244379758475  0.008359630464944277  1.0000
  B   B17       1.0  0.11123276998347219  0.21007579305490537  0.5693407850733375  1.0000
  B   B18       1.0  0.3887672297976833  0.7100757931106548  0.9306592151516319  1.0000
  B   B19       1.0  0.8887672295487867  0.7899242070565936  0.4306592148389367  1.0000
  B   B20       1.0  0.6112327697345755  0.2899242070008441  0.06934078476064236  1.0000
  B   B21       1.0  0.2582628656991277  0.2378990205969679  0.631128581751374  1.0000
  B   B22       1.0  0.2417371339180551  0.7378990206527174  0.8688714177526627  1.0000
  B   B23       1.0  0.7417371338331311  0.762100979514531  0.3688714181609002  1.0000
  B   B24       1.0  0.7582628665064752  0.2621009794587816  0.13112858215899442  1.0000
  B   B25       1.0  0.24746663737886287  0.33531699113678165  0.6733042841248262  1.0000
  B   B26       1.0  0.2525333624022926  0.8353169911925311  0.8266957161001431  1.0000
  B   B27       1.0  0.7525333623173687  0.6646830089747173  0.3266957165083807  1.0000
  B   B28       1.0  0.7474666380222377  0.1646830089189678  0.17330428381151397  1.0000
  B   B29       1.0  0.09304827566994535  0.3671379996543483  0.6361168038006793  1.0000
  B   B30       1.0  0.4069517248395089  0.8671379997100978  0.8638831957027405  1.0000
  B   B31       1.0  0.906951724754585  0.6328619998790954  0.3638831961109779  1.0000
  B   B32       1.0  0.5930482755850215  0.1328620004014012  0.1361168042089167  1.0000
  B   B33       1.0  0.009712814700533147  0.289834889359004  0.5720714327609714  1.0000
  B   B34       1.0  0.4902871850806222  0.7898348894147534  0.9279285674639978  1.0000
  B   B35       1.0  0.9902871857239971  0.7101651101744396  0.4279285671506857  1.0000
  B   B36       1.0  0.5097128144516365  0.21016511011869016  0.07207143244827631  1.0000
  B   B37       1.0  0.12457357245506012  0.26927319118542975  0.6746220478131298  1.0000
  B   B38       1.0  0.37542642716212266  0.7692731912411792  0.8253779516909069  1.0000
  B   B39       1.0  0.8754264279694701  0.7307268089260692  0.3253779520985273  1.0000
  B   B40       1.0  0.6245735723701362  0.2307268088703197  0.17462204822136732  1.0000
  C   C1        1.0  0.1913022271573414  0.33446888684886417  0.4748797541587586  1.0000
  C   C2        1.0  0.30869777269077436  0.8344688863265584  0.025120246157844774  1.0000
  C   C3        1.0  0.808697773267189  0.6655311132626347  0.5251202457528985  1.0000
  C   C4        1.0  0.6913022270054572  0.1655311132068853  0.974879754475362  1.0000
  C   C5        1.0  0.07947304476737738  0.27401242697393924  0.4763980383464936  1.0000
  C   C6        1.0  0.4205269559730099  0.7740124270296888  0.023601961969492744  1.0000
  C   C7        1.0  0.9205269558211256  0.7259875731375598  0.5236019622860961  1.0000
  C   C8        1.0  0.5794730444515205  0.2259875730818103  0.9763980379421644  1.0000
  C   C9        1.0  0.7710544299377385  0.06263030169971524  0.7470384894726831  1.0000
  C   C10       1.0  0.7289455692786635  0.5626303017554647  0.7529615100352619  1.0000
  C   C11       1.0  0.22894556959452034  0.9373696984117837  0.25296151043959103  1.0000
  C   C12       1.0  0.27105443025359544  0.43736969835603423  0.24703848987701235  1.0000
  C   C13       1.0  0.8838274315150956  0.0244233598351959  0.798705606274638  1.0000
  C   C14       1.0  0.6161725687575508  0.5244233598909455  0.7012943939536225  1.0000
  C   C15       1.0  0.11617256907340759  0.9755766396982477  0.20129439435795177  1.0000
  C   C16       1.0  0.38382743166697963  0.4755766396424983  0.2987056059580346  1.0000
  C   C17       1.0  0.6413529419415276  0.07799078573037353  0.5945323770499219  1.0000
  C   C18       1.0  0.8586470574388471  0.5779907857861231  0.9054676231789559  1.0000
  C   C19       1.0  0.358647057754704  0.9220092143811254  0.40546762358328503  1.0000
  C   C20       1.0  0.14135294209341182  0.42200921432537597  0.09453237673331835  1.0000
  C   C21       1.0  0.6480670674657354  0.0627654371634196  0.49060229859126403  1.0000
  C   C22       1.0  0.8519329328738711  0.562765437219169  0.009397701728630565  1.0000
  C   C23       1.0  0.3519329320665235  0.9372345629480794  0.5093977013210101  1.0000
  C   C24       1.0  0.148067067714632  0.4372345628923299  0.9906022989039592  1.0000
  O   O1        1.0  0.7034714949352234  0.10535552116974743  0.7834415283722138  1.0000
  O   O2        1.0  0.7965285053374226  0.6053555212254969  0.7165584718560466  1.0000
  O   O3        1.0  0.29652850548930687  0.8946444783636962  0.21655847153944327  1.0000
  O   O4        1.0  0.2034714941948362  0.3946444783079467  0.2834415280562275  1.0000
  O   O5        1.0  0.7491034799776191  0.044009700619679404  0.6531353047237801  1.0000
  O   O6        1.0  0.7508965202950268  0.5440097006754289  0.8468646955044804  1.0000
  O   O7        1.0  0.25089652044691113  0.9559902994918197  0.34686469518787694  1.0000
  O   O8        1.0  0.2491034801295034  0.45599029943607006  0.1531353044071768  1.0000
  I   I1        1.0  0.2903664595438184  0.16644108155467677  0.3997306329563614  1.0000
  I   I2        1.0  0.20963354030429734  0.6664410810323709  0.10026936736024199  1.0000
  I   I3        1.0  0.7096335399884405  0.8335589185568222  0.6002693669559127  1.0000
  I   I4        1.0  0.790366460120233  0.3335589185010727  0.8997306325514152  1.0000
  I   I5        1.0  0.4928762174798242  0.33700248661311605  0.5512184069559557  1.0000
  I   I6        1.0  0.007123783029630076  0.8370024866688656  0.9487815925474641  1.0000
  I   I7        1.0  0.5071237829447062  0.6629975134983829  0.44878159295570147  1.0000
  I   I8        1.0  0.9928762173949003  0.1629975134426334  0.05121840736419315  1.0000
  I   I9        1.0  0.2637922763748279  0.513813191813434  0.5582973746398279  1.0000
  I   I10       1.0  0.2362077234063276  0.013813191757684482  0.9417026255851416  1.0000
  I   I11       1.0  0.7362077231574309  0.486186808298065  0.44170262527244636  1.0000
  I   I12       1.0  0.7637922761259313  0.9861868083538144  0.05829737432713268  1.0000
  I   I13       1.0  0.045944331147980806  0.09339740955971695  0.5605919572815004  1.0000
  I   I14       1.0  0.45405566863317465  0.5933974096154665  0.939408042943469  1.0000
  I   I15       1.0  0.9540556685482507  0.9066025899737267  0.4394080433517066  1.0000
  I   I16       1.0  0.5459443308990842  0.4066025899179772  0.06059195696880518  1.0000
  I   I17       1.0  0.3805889230901028  0.1543541480012972  0.7073561530651085  1.0000
  I   I18       1.0  0.11941107669105262  0.6543541480570467  0.7926438471598609  1.0000
  I   I19       1.0  0.619411076442156  0.8456458521102017  0.29264384684716577  1.0000
  I   I20       1.0  0.8805889237334779  0.3456458520544523  0.20735615275179625  1.0000
  I   I21       1.0  0.36358804782767035  0.37632691117552625  0.8022276842561651  1.0000
  I   I22       1.0  0.13641195284575655  0.8763269112312757  0.697772315968187  1.0000
  I   I23       1.0  0.63641195259686  0.6236730889359727  0.197772315655492  1.0000
  I   I24       1.0  0.8635880475787738  0.12367308888022321  0.30222768394347005  1.0000
  I   I25       1.0  0.0028443560831926053  0.4490606865499483  0.7135565548832495  1.0000
  I   I26       1.0  0.4971556436979629  0.9490606866056978  0.7864434453417198  1.0000
  I   I27       1.0  0.9971556436130389  0.5509393135615507  0.28644344574995734  1.0000
  I   I28       1.0  0.5028443567265675  0.05093931350580118  0.21355655456993725  1.0000
  I   I29       1.0  0.8187207563452565  0.2711140130202213  0.5616627172682304  1.0000
  I   I30       1.0  0.6812792439273896  0.7711140130759708  0.9383372829600302  1.0000
  I   I31       1.0  0.18127924318700223  0.7288859870912776  0.4383372826440438  1.0000
  I   I32       1.0  0.3187207564971408  0.22888598703552815  0.06166271695162702  1.0000
  I   I33       1.0  0.07590900918755442  0.22519924202762465  0.804769782326656  1.0000
  I   I34       1.0  0.42409099132189976  0.7251992420833742  0.6952302171767636  1.0000
  I   I35       1.0  0.9240909912369759  0.7748007580838743  0.1952302175850011  1.0000
  I   I36       1.0  0.5759090091026305  0.27480075802812487  0.3047697827348936  1.0000
