data_image0
_chemical_formula_structural       H40C12N6O16S4Cl2
_chemical_formula_sum              "H40 C12 N6 O16 S4 Cl2"
_cell_length_a       7.582375654709568
_cell_length_b       8.296579893854318
_cell_length_c       11.336997387101906
_cell_angle_alpha    86.9740170544581
_cell_angle_beta     80.36786928539183
_cell_angle_gamma    81.30007607860081

_space_group_name_H-M_alt    "P 1"
_space_group_IT_number       1

loop_
  _space_group_symop_operation_xyz
  'x, y, z'

loop_
  _atom_site_type_symbol
  _atom_site_label
  _atom_site_symmetry_multiplicity
  _atom_site_fract_x
  _atom_site_fract_y
  _atom_site_fract_z
  _atom_site_occupancy
  H   H1        1.0  0.7134721512771276  0.5558973616515301  0.8315727072544826  1.0000
  H   H2        1.0  0.28652784866722936  0.44410263821618384  0.16842729279564203  1.0000
  H   H3        1.0  0.8801300076444993  0.4035061132108248  0.7923822090064448  1.0000
  H   H4        1.0  0.1198699922998576  0.5964938866568892  0.20761779104367967  1.0000
  H   H5        1.0  0.09458119050117222  0.601437007290767  0.7477508512445984  1.0000
  H   H6        1.0  0.9054188094431849  0.398562992576947  0.2522491488055261  1.0000
  H   H7        1.0  0.0067167150082369795  0.5554730048241486  0.8984093816783838  1.0000
  H   H8        1.0  0.9932832849361201  0.44452699504356535  0.10159061837174073  1.0000
  H   H9        1.0  0.008556562602444702  0.8309260482372712  0.8933753747155033  1.0000
  H   H10       1.0  0.9914434373419122  0.1690739516304428  0.10662462533462119  1.0000
  H   H11       1.0  0.7786237354848586  0.8095965745030664  0.904318321759219  1.0000
  H   H12       1.0  0.2213762642571695  0.19040342658402418  0.09568167829007804  1.0000
  H   H13       1.0  0.9865482679512002  0.8694342516828749  0.6646904227037475  1.0000
  H   H14       1.0  0.013451731993156888  0.13056574818483901  0.33530957734637706  1.0000
  H   H15       1.0  0.9451286351106394  0.018147267506622915  0.7612186978771991  1.0000
  H   H16       1.0  0.0548713648337176  0.9818527323610912  0.2387813021729256  1.0000
  H   H17       1.0  0.6164305339784631  0.9872239618349677  0.79784833535422  1.0000
  H   H18       1.0  0.3835694659658939  0.012776038032746122  0.20215166469590448  1.0000
  H   H19       1.0  0.7197936145813647  0.10435826465418167  0.6786948796008804  1.0000
  H   H20       1.0  0.28020638536299236  0.8956417352135322  0.32130512044924414  1.0000
  H   H21       1.0  0.5392149225773318  0.9909256637002994  0.5857417579431626  1.0000
  H   H22       1.0  0.4607850773670252  0.009074336167414649  0.41425824210696194  1.0000
  H   H23       1.0  0.7428839424010806  0.8599558269631713  0.5413991578339445  1.0000
  H   H24       1.0  0.2571160575432765  0.14004417290454255  0.4586008422161801  1.0000
  H   H25       1.0  0.41438399129859876  0.7741416590369794  0.6299121873012749  1.0000
  H   H26       1.0  0.5856160086457581  0.22585834083073458  0.37008781274884966  1.0000
  H   H27       1.0  0.5094029088910884  0.7538167132768432  0.7551636514884844  1.0000
  H   H28       1.0  0.49059709105326854  0.24618328659087074  0.2448363485616402  1.0000
  H   H29       1.0  0.6344221029634645  0.5904178624227884  0.5234873992607266  1.0000
  H   H30       1.0  0.36557789830005183  0.40958213744565625  0.47651260078765906  1.0000
  H   H31       1.0  0.5438365661279114  0.5015298388256073  0.6624163740282256  1.0000
  H   H32       1.0  0.456163434032294  0.4984701610753734  0.33758362512686446  1.0000
  H   H33       1.0  0.876553110373148  0.4292543896451655  0.6044590690530318  1.0000
  H   H34       1.0  0.1234468897870574  0.5707456102558154  0.3955409301020583  1.0000
  H   H35       1.0  0.9090377496862789  0.6356610719518284  0.6045261239699119  1.0000
  H   H36       1.0  0.0909622502580782  0.36433892791588546  0.3954738760802126  1.0000
  H   H37       1.0  0.2798400202132058  0.9570534857258342  0.928287940400734  1.0000
  H   H38       1.0  0.7201599797311512  0.04294651414187978  0.0717120596493904  1.0000
  H   H39       1.0  0.3619454322545363  0.3023573273408078  0.8714082943992352  1.0000
  H   H40       1.0  0.6380545676898206  0.6976426725269061  0.1285917056508893  1.0000
  C   C1        1.0  0.8215061393710236  0.5470210425427355  0.6454230904476128  1.0000
  C   C2        1.0  0.17849386037100476  0.4529789585443552  0.35457690960168414  1.0000
  C   C3        1.0  0.6304340645912359  0.5904918104493495  0.6205620155238811  1.0000
  C   C4        1.0  0.3695659353531211  0.4095081894183643  0.37943798452624344  1.0000
  C   C5        1.0  0.6389609895964585  0.8971126924971015  0.6182455030176356  1.0000
  C   C6        1.0  0.3610390103478984  0.10288730737061255  0.381754497032489  1.0000
  C   C7        1.0  0.7101994109645147  0.9795749154598379  0.7131368868849037  1.0000
  C   C8        1.0  0.28980058897984246  0.020425084407875934  0.28686311316522084  1.0000
  C   C9        1.0  0.9085529758979872  0.7943960078595113  0.8447975886931329  1.0000
  C   C10       1.0  0.09144702404636974  0.20560399200820276  0.15520241135699162  1.0000
  C   C11       1.0  0.9727692085708092  0.6172299430867202  0.8158879845611282  1.0000
  C   C12       1.0  0.027230791171218925  0.3827700580003706  0.1841120154881688  1.0000
  N   N1        1.0  0.837083307787408  0.5270217047649418  0.7761891098676084  1.0000
  N   N2        1.0  0.16291669215694904  0.47297829510277206  0.22381089018251618  1.0000
  N   N3        1.0  0.54010775873376  0.7555354278353353  0.661642057489689  1.0000
  N   N4        1.0  0.45989224121059696  0.24446457203237854  0.3383579425604356  1.0000
  N   N5        1.0  0.8946872049220996  0.913867009846149  0.7411297506232517  1.0000
  N   N6        1.0  0.10531279502225742  0.08613299002156495  0.2588702494268728  1.0000
  O   O1        1.0  0.22767527409165042  0.6319570278691252  0.9951183216645824  1.0000
  O   O2        1.0  0.7723247258527065  0.36804297199858865  0.004881678385542096  1.0000
  O   O3        1.0  0.43888251503929293  0.6882064007853901  0.12249481708766465  1.0000
  O   O4        1.0  0.5611174847027353  0.31179360030170056  0.8775051829616324  1.0000
  O   O5        1.0  0.5210226192131554  0.7074076086519994  0.9043102053740937  1.0000
  O   O6        1.0  0.47897738094704995  0.2925923912489815  0.0956897937809964  1.0000
  O   O7        1.0  0.29363925953666975  0.911332501604791  0.012962327488548947  1.0000
  O   O8        1.0  0.7063607404076874  0.08866749826292286  0.9870376725615756  1.0000
  O   O9        1.0  0.01796578071608222  0.2087860311153257  0.7570794251003894  1.0000
  O   O10       1.0  0.9820342192282747  0.7912139687523884  0.24292057494973524  1.0000
  O   O11       1.0  0.2732185452689279  0.011126359463183595  0.7974147633311559  1.0000
  O   O12       1.0  0.726781454675429  0.9888736404045305  0.2025852367189687  1.0000
  O   O13       1.0  0.3251661678507315  0.2360246612136816  0.6537874723694201  1.0000
  O   O14       1.0  0.6748338320936255  0.7639753386540323  0.34621252768070443  1.0000
  O   O15       1.0  0.22894121689019237  0.29287904239233253  0.8680723731571129  1.0000
  O   O16       1.0  0.7710587830541646  0.7071209574753814  0.1319276268930116  1.0000
  S   S1        1.0  0.37206906731130734  0.7230974518104447  0.007452660382009288  1.0000
  S   S2        1.0  0.6279309326330497  0.27690254805726927  0.9925473396681151  1.0000
  S   S3        1.0  0.21386830973290683  0.1833318807867838  0.7617488533351191  1.0000
  S   S4        1.0  0.7861316902114502  0.8166681190809301  0.23825114671500536  1.0000
  Cl  Cl1       1.0  0.20066349477235682  0.7724995525428852  0.5429366791738848  1.0000
  Cl  Cl2       1.0  0.7993365051720002  0.2275004473248288  0.45706332087623974  1.0000
