data_image0
_chemical_formula_structural       H52C48N6O8Br2
_chemical_formula_sum              "H52 C48 N6 O8 Br2"
_cell_length_a       11.814524867373523
_cell_length_b       6.822749496864235
_cell_length_c       14.146723287655712
_cell_angle_alpha    90.0
_cell_angle_beta     96.02849666638436
_cell_angle_gamma    90.0

_space_group_name_H-M_alt    "P 1"
_space_group_IT_number       1

loop_
  _space_group_symop_operation_xyz
  'x, y, z'

loop_
  _atom_site_type_symbol
  _atom_site_label
  _atom_site_symmetry_multiplicity
  _atom_site_fract_x
  _atom_site_fract_y
  _atom_site_fract_z
  _atom_site_occupancy
  H   H1        1.0  0.36927945729405565  0.5570574856583554  0.04357261078895732  1.0000
  H   H2        1.0  0.63072054267058  0.05705748542855323  0.9564273891538979  1.0000
  H   H3        1.0  0.11940006941584048  0.28391037526590657  0.8944581029573929  1.0000
  H   H4        1.0  0.8805999305487952  0.7839103754957087  0.10554189698546229  1.0000
  H   H5        1.0  0.9706239639904543  0.3182670462982718  0.00613931985136583  1.0000
  H   H6        1.0  0.029376036042095814  0.818267046528074  0.9938606808020695  1.0000
  H   H7        1.0  0.15804842994875792  0.9317665367784352  0.2083237819463727  1.0000
  H   H8        1.0  0.8419515700158778  0.4317665365486331  0.7916762179964825  1.0000
  H   H9        1.0  0.3395808049033837  0.2786991477371308  0.8554114461191268  1.0000
  H   H10       1.0  0.660419195061252  0.778699147966933  0.1445885538237284  1.0000
  H   H11       1.0  0.2507269405803525  0.09832246813521678  0.7930229458852303  1.0000
  H   H12       1.0  0.7492730593842832  0.5983224683650189  0.20697705405762498  1.0000
  H   H13       1.0  0.4007432849338906  0.056359765249586115  0.8191137210557903  1.0000
  H   H14       1.0  0.5992567150307451  0.5563597640137036  0.18088627888706485  1.0000
  H   H15       1.0  0.24476991240819065  0.3865263543989203  0.13652823674191356  1.0000
  H   H16       1.0  0.755230087556445  0.8865263531630376  0.8634717632009415  1.0000
  H   H17       1.0  0.1909820602817971  0.6133720975573544  0.17089404507344036  1.0000
  H   H18       1.0  0.8090179396828385  0.11337209732755223  0.8291059548694147  1.0000
  H   H19       1.0  0.3234636085933866  0.5279164905080309  0.3043351588096129  1.0000
  H   H20       1.0  0.6765363913712491  0.027916490278228675  0.6956648411332421  1.0000
  H   H21       1.0  0.42187142760707935  0.42649954264587947  0.2332841450108925  1.0000
  H   H22       1.0  0.5781285723575563  0.9264995428756816  0.7667158549319626  1.0000
  H   H23       1.0  0.49455056277552095  0.13944841012223555  0.13371985697539665  1.0000
  H   H24       1.0  0.5054494371891147  0.6394484103520378  0.8662801429674585  1.0000
  H   H25       1.0  0.6414428239266522  0.27114529572722085  0.29319082060170243  1.0000
  H   H26       1.0  0.3585571760379834  0.7711452959570231  0.7068091793411527  1.0000
  H   H27       1.0  0.7170842821328895  0.16607618387876852  0.45694259450840546  1.0000
  H   H28       1.0  0.28291571783174607  0.6660761841085707  0.5430574054344497  1.0000
  H   H29       1.0  0.5244199376352019  0.62885275092863  0.4300507554607429  1.0000
  H   H30       1.0  0.47558006317784246  0.1288527506988278  0.5699492445001209  1.0000
  H   H31       1.0  0.5573569729693734  0.6741749513321652  0.5912051847552576  1.0000
  H   H32       1.0  0.4426430270631769  0.17417495110236303  0.40879481589817784  1.0000
  H   H33       1.0  0.6954101496232258  0.6794427645527032  0.6572358358523656  1.0000
  H   H34       1.0  0.3045898503414098  0.17944276432290096  0.3427641640904896  1.0000
  H   H35       1.0  0.6748864902209497  0.545654456712949  0.5490830289066008  1.0000
  H   H36       1.0  0.3251135097436859  0.04565445648314681  0.4509169710362544  1.0000
  H   H37       1.0  0.8125555283388424  0.42955344635575127  0.32920142418564424  1.0000
  H   H38       1.0  0.1874444716257932  0.9295534465855535  0.6707985757572108  1.0000
  H   H39       1.0  0.8711165405736536  0.6200759843145953  0.4050208724363789  1.0000
  H   H40       1.0  0.1288834593909819  0.12007598408479311  0.5949791275064762  1.0000
  H   H41       1.0  0.8958730104876202  0.17707284732573852  0.4488836789520212  1.0000
  H   H42       1.0  0.10412698947701551  0.6770728475555408  0.5511163209908341  1.0000
  H   H43       1.0  0.998808016145348  0.31598158938575194  0.39788004373847446  1.0000
  H   H44       1.0  0.0011919838192876958  0.8159815896155541  0.6021199562043807  1.0000
  H   H45       1.0  0.23640371607222388  0.9662318238460721  0.5579523313323417  1.0000
  H   H46       1.0  0.7635962838924119  0.46623182361626986  0.44204766861051353  1.0000
  H   H47       1.0  0.8505396071792554  0.0459260508016619  0.5706299333680351  1.0000
  H   H48       1.0  0.14946039278538029  0.5459260510314641  0.42937006657481996  1.0000
  H   H49       1.0  0.00910756666301333  0.3688399817634512  0.6765991267397551  1.0000
  H   H50       1.0  0.9908924333016222  0.8688399819932534  0.3234008732031  1.0000
  H   H51       1.0  0.8989606340535021  0.05772920142840145  0.6984633505491962  1.0000
  H   H52       1.0  0.1010393659111335  0.5577292001925189  0.301536649393659  1.0000
  C   C1        1.0  0.3301616674729339  0.8377312273632395  0.07522967928167094  1.0000
  C   C2        1.0  0.6698383324917018  0.33773122713343734  0.9247703206611843  1.0000
  C   C3        1.0  0.3797412221351726  0.8966552300962685  0.9816347084894345  1.0000
  C   C4        1.0  0.6202587778294631  0.3966552298664663  0.018365291453420692  1.0000
  C   C5        1.0  0.21517215029846504  0.07234022738587163  0.9859524266572569  1.0000
  C   C6        1.0  0.7848278496661706  0.572340226149989  0.014047573285598308  1.0000
  C   C7        1.0  0.12581646294703777  0.20075825598309463  0.9605302066336119  1.0000
  C   C8        1.0  0.8741835370175979  0.700758254747212  0.039469793309243356  1.0000
  C   C9        1.0  0.04375819830997002  0.22397281340936323  0.024241243525837418  1.0000
  C   C10       1.0  0.9562418016546657  0.7239728136391654  0.9757587564170177  1.0000
  C   C11       1.0  0.056165443112584194  0.12657736157496577  0.11118838520427954  1.0000
  C   C12       1.0  0.9438345568520514  0.6265773618047679  0.8888116147385756  1.0000
  C   C13       1.0  0.14758311779913696  0.9998710509795737  0.13807652162985332  1.0000
  C   C14       1.0  0.8524168821654987  0.4998710507497715  0.8619234783130018  1.0000
  C   C15       1.0  0.22506298358805515  0.9684462316895587  0.07206689293871282  1.0000
  C   C16       1.0  0.7749370163765805  0.46844623145975645  0.9279331070041422  1.0000
  C   C17       1.0  0.32519569738295756  0.12069555981477453  0.8451555936685132  1.0000
  C   C18       1.0  0.6748043025816781  0.6206955600445767  0.15484440627434193  1.0000
  C   C19       1.0  0.2685286936580082  0.5393823005947055  0.1526322161261104  1.0000
  C   C20       1.0  0.7314713063066275  0.039382300364903276  0.8473677838167447  1.0000
  C   C21       1.0  0.36152280850281027  0.5491424933191498  0.23742092618352806  1.0000
  C   C22       1.0  0.6384771915297398  0.04914249308934753  0.7625790744699074  1.0000
  C   C23       1.0  0.42332201664000635  0.7401115228282698  0.23803665893948786  1.0000
  C   C24       1.0  0.5766779833246294  0.24011152406415234  0.7619633410033673  1.0000
  C   C25       1.0  0.41163110668538433  0.8687172851244346  0.16217942657219475  1.0000
  C   C26       1.0  0.5883688932792513  0.36871728489463246  0.8378205733706604  1.0000
  C   C27       1.0  0.5406534977270835  0.005744851107022836  0.2693810055872271  1.0000
  C   C28       1.0  0.4593465022375521  0.505744851336825  0.730618994355628  1.0000
  C   C29       1.0  0.6182137834060794  0.12965618339154492  0.32119650939078354  1.0000
  C   C30       1.0  0.38178621655855627  0.6296561836213471  0.6788034905520717  1.0000
  C   C31       1.0  0.6608024470502137  0.07099187947946996  0.4119065542517927  1.0000
  C   C32       1.0  0.3391975529144219  0.5709918797092721  0.5880934456910625  1.0000
  C   C33       1.0  0.6293681910542107  0.8900173636436287  0.45048476053194003  1.0000
  C   C34       1.0  0.370631808910425  0.3900173648795113  0.5495152394109152  1.0000
  C   C35       1.0  0.551416432924289  0.765663076506171  0.3997557451960709  1.0000
  C   C36       1.0  0.4485835670403466  0.2656630762763688  0.6002442547467842  1.0000
  C   C37       1.0  0.5057222209778797  0.8247637352926801  0.308015202446854  1.0000
  C   C38       1.0  0.49427777898675596  0.3247637365285627  0.6919847974960013  1.0000
  C   C39       1.0  0.6493021953650056  0.6772687568441075  0.5859912803849898  1.0000
  C   C40       1.0  0.3506978045996301  0.17726875661430533  0.41400871955786533  1.0000
  C   C41       1.0  0.8391963450454543  0.46929910463100133  0.40346062887678724  1.0000
  C   C42       1.0  0.1608036549191814  0.9692991048608036  0.596539371066068  1.0000
  C   C43       1.0  0.05000775733017954  0.8151685464278261  0.3823359960991485  1.0000
  C   C44       1.0  0.9499922427023706  0.3151685461980239  0.6176640045542868  1.0000
  C   C45       1.0  0.9296714597897671  0.3258055335347795  0.44384766740192344  1.0000
  C   C46       1.0  0.0703285401748686  0.8258055337645817  0.5561523325409317  1.0000
  C   C47       1.0  0.8850258907916073  0.13584029142883866  0.6305456728068793  1.0000
  C   C48       1.0  0.11497410917302818  0.6358402901929561  0.36945432713597576  1.0000
  N   N1        1.0  0.29923598592724776  0.628099752448712  0.06402971587601218  1.0000
  N   N2        1.0  0.700764014037388  0.12809975221890982  0.9359702840668429  1.0000
  N   N3        1.0  0.30730236953013523  0.02810349406615705  0.9344200092084828  1.0000
  N   N4        1.0  0.6926976304345004  0.5281034942959593  0.06557999073437233  1.0000
  N   N5        1.0  0.48105639196351363  0.029851651463036682  0.18063186138331572  1.0000
  N   N6        1.0  0.5189436080011219  0.5298516516928389  0.8193681385595394  1.0000
  O   O1        1.0  0.46861083615270044  0.8317136489633774  0.954167289981686  1.0000
  O   O2        1.0  0.5313891638119352  0.33171364873357523  0.045832709961169116  1.0000
  O   O3        1.0  0.68127331817829  0.8526547387785123  0.5401181867168139  1.0000
  O   O4        1.0  0.3187266818542601  0.35265474001439484  0.4598818139366215  1.0000
  O   O5        1.0  0.1683949434407486  0.8290126616255791  0.3646747498990526  1.0000
  O   O6        1.0  0.831605056523887  0.32901266286146175  0.6353252500438026  1.0000
  O   O7        1.0  0.014884607577326228  0.8875612863674951  0.4650947467741938  1.0000
  O   O8        1.0  0.9851153923873095  0.3875612861376929  0.5349052531686613  1.0000
  Br  Br1       1.0  0.9420678565305284  0.17035883122107962  0.19549197932186632  1.0000
  Br  Br2       1.0  0.05793214350202161  0.6703588314508818  0.804508021331569  1.0000
