data_image0
_chemical_formula_structural       H80C32N4I28
_chemical_formula_sum              "H80 C32 N4 I28"
_cell_length_a       11.01414666898978
_cell_length_b       15.366987022307917
_cell_length_c       12.382152195295708
_cell_angle_alpha    90.0
_cell_angle_beta     90.0
_cell_angle_gamma    90.0

_space_group_name_H-M_alt    "P 1"
_space_group_IT_number       1

loop_
  _space_group_symop_operation_xyz
  'x, y, z'

loop_
  _atom_site_type_symbol
  _atom_site_label
  _atom_site_symmetry_multiplicity
  _atom_site_fract_x
  _atom_site_fract_y
  _atom_site_fract_z
  _atom_site_occupancy
  H   H1        1.0  0.07508453581142042  0.6255700461023905  0.3246542334964408  1.0000
  H   H2        1.0  0.9249154642802999  0.37442995374742283  0.3246542334964408  1.0000
  H   H3        1.0  0.5750845354033189  0.8744299536723295  0.3246542334964408  1.0000
  H   H4        1.0  0.42491546468840136  0.12557004617748385  0.3246542334964408  1.0000
  H   H5        1.0  0.07508453581142042  0.12557004617748385  0.8246542336864036  1.0000
  H   H6        1.0  0.9249154642802999  0.8744299536723295  0.8246542336864036  1.0000
  H   H7        1.0  0.5750845354033189  0.37442995374742283  0.8246542336864036  1.0000
  H   H8        1.0  0.42491546468840136  0.6255700461023905  0.8246542336864036  1.0000
  H   H9        1.0  0.9581674819814217  0.6025500891331764  0.23142908638198698  1.0000
  H   H10       1.0  0.04183251811029861  0.3974499113673826  0.23142908638198698  1.0000
  H   H11       1.0  0.4581674823895232  0.8974499112922892  0.23142908638198698  1.0000
  H   H12       1.0  0.5418325177021972  0.10255008855752407  0.23142908638198698  1.0000
  H   H13       1.0  0.9581674819814217  0.10255008855752407  0.7314290865719496  1.0000
  H   H14       1.0  0.04183251811029861  0.8974499112922892  0.7314290865719496  1.0000
  H   H15       1.0  0.4581674823895232  0.3974499113673826  0.7314290865719496  1.0000
  H   H16       1.0  0.5418325177021972  0.6025500891331764  0.7314290865719496  1.0000
  H   H17       1.0  0.16017224420725906  0.6150482379063349  0.14416885706494648  1.0000
  H   H18       1.0  0.8398277558844612  0.38495176194347847  0.14416885706494648  1.0000
  H   H19       1.0  0.6601722437991576  0.8849517618683851  0.14416885706494648  1.0000
  H   H20       1.0  0.33982775629256273  0.11504823798142821  0.14416885706494648  1.0000
  H   H21       1.0  0.16017224420725906  0.11504823798142821  0.644168856447295  1.0000
  H   H22       1.0  0.8398277558844612  0.8849517618683851  0.644168856447295  1.0000
  H   H23       1.0  0.6601722437991576  0.38495176194347847  0.644168856447295  1.0000
  H   H24       1.0  0.33982775629256273  0.6150482379063349  0.644168856447295  1.0000
  H   H25       1.0  0.09939582183722744  0.5098807969724723  0.12204675941345186  1.0000
  H   H26       1.0  0.900604178254493  0.49011920287734095  0.12204675941345186  1.0000
  H   H27       1.0  0.5993958223370492  0.9901192028022477  0.12204675941345186  1.0000
  H   H28       1.0  0.4006041777546711  0.009880797047565667  0.12204675941345186  1.0000
  H   H29       1.0  0.09939582183722744  0.009880797047565667  0.6220467596034145  1.0000
  H   H30       1.0  0.900604178254493  0.9901192028022477  0.6220467596034145  1.0000
  H   H31       1.0  0.5993958223370492  0.49011920287734095  0.6220467596034145  1.0000
  H   H32       1.0  0.4006041777546711  0.5098807969724723  0.6220467596034145  1.0000
  H   H33       1.0  0.21793904713093554  0.525913388113621  0.21849749278868305  1.0000
  H   H34       1.0  0.7820609529607848  0.4740866117361924  0.21849749278868305  1.0000
  H   H35       1.0  0.717939046722834  0.974086611661099  0.21849749278868305  1.0000
  H   H36       1.0  0.28206095336888626  0.025913388188714304  0.21849749278868305  1.0000
  H   H37       1.0  0.21793904713093554  0.025913388188714304  0.7184974929786457  1.0000
  H   H38       1.0  0.7820609529607848  0.974086611661099  0.7184974929786457  1.0000
  H   H39       1.0  0.717939046722834  0.4740866117361924  0.7184974929786457  1.0000
  H   H40       1.0  0.28206095336888626  0.525913388113621  0.7184974929786457  1.0000
  H   H41       1.0  0.07041258967283504  0.40723412018995364  0.44647896042663465  1.0000
  H   H42       1.0  0.9295874104188853  0.5927658796598597  0.44647896042663465  1.0000
  H   H43       1.0  0.5704125892647336  0.09276587973495302  0.44647896042663465  1.0000
  H   H44       1.0  0.4295874108269868  0.9072341201148604  0.44647896042663465  1.0000
  H   H45       1.0  0.07041258967283504  0.9072341201148604  0.9464789606165973  1.0000
  H   H46       1.0  0.9295874104188853  0.09276587973495302  0.9464789606165973  1.0000
  H   H47       1.0  0.5704125892647336  0.5927658796598597  0.9464789606165973  1.0000
  H   H48       1.0  0.4295874108269868  0.40723412018995364  0.9464789606165973  1.0000
  H   H49       1.0  0.17642556145279922  0.4481004148701247  0.35220034378650694  1.0000
  H   H50       1.0  0.8235744386389211  0.5518995849796886  0.35220034378650694  1.0000
  H   H51       1.0  0.676425561952621  0.05189958505478194  0.35220034378650694  1.0000
  H   H52       1.0  0.3235744381390993  0.9481004147950314  0.35220034378650694  1.0000
  H   H53       1.0  0.17642556145279922  0.9481004147950314  0.8522003431688555  1.0000
  H   H54       1.0  0.8235744386389211  0.05189958505478194  0.8522003431688555  1.0000
  H   H55       1.0  0.676425561952621  0.5518995849796886  0.8522003431688555  1.0000
  H   H56       1.0  0.3235744381390993  0.4481004148701247  0.8522003431688555  1.0000
  H   H57       1.0  0.23134320130074207  0.5000369935137718  0.5269688182704632  1.0000
  H   H58       1.0  0.7686567987909783  0.4999630069867871  0.5269688182704632  1.0000
  H   H59       1.0  0.7313432008926406  0.9999630069116938  0.5269688182704632  1.0000
  H   H60       1.0  0.26865679919907975  3.699293811953928e-05  0.5269688182704632  1.0000
  H   H61       1.0  0.23134320130074207  3.699293811953928e-05  0.026968818080500515  1.0000
  H   H62       1.0  0.7686567987909783  0.9999630069116938  0.026968818080500515  1.0000
  H   H63       1.0  0.7313432008926406  0.4999630069867871  0.026968818080500515  1.0000
  H   H64       1.0  0.26865679919907975  0.5000369935137718  0.026968818080500515  1.0000
  H   H65       1.0  0.08477387110059616  0.5398957575714778  0.5589774217627201  1.0000
  H   H66       1.0  0.9152261289911242  0.4601042422783356  0.5589774217627201  1.0000
  H   H67       1.0  0.5847738706924946  0.9601042422032422  0.5589774217627201  1.0000
  H   H68       1.0  0.41522612849130236  0.0398957576465711  0.5589774217627201  1.0000
  H   H69       1.0  0.08477387110059616  0.0398957576465711  0.058977421572757524  1.0000
  H   H70       1.0  0.9152261289911242  0.9601042422032422  0.058977421572757524  1.0000
  H   H71       1.0  0.5847738706924946  0.4601042422783356  0.058977421572757524  1.0000
  H   H72       1.0  0.41522612849130236  0.5398957575714778  0.058977421572757524  1.0000
  H   H73       1.0  0.17650830594743774  0.5934818677702178  0.46053497728500636  1.0000
  H   H74       1.0  0.8234916941442826  0.40651813207959553  0.46053497728500636  1.0000
  H   H75       1.0  0.6765083055393363  0.9065181326552478  0.46053497728500636  1.0000
  H   H76       1.0  0.32349169364446084  0.09348186784531114  0.46053497728500636  1.0000
  H   H77       1.0  0.17650830594743774  0.09348186784531114  0.960534977474969  1.0000
  H   H78       1.0  0.8234916941442826  0.9065181326552478  0.960534977474969  1.0000
  H   H79       1.0  0.6765083055393363  0.40651813207959553  0.960534977474969  1.0000
  H   H80       1.0  0.32349169364446084  0.5934818677702178  0.960534977474969  1.0000
  C   C1        1.0  0.040729227009753045  0.5760217977115588  0.2687703121000543  1.0000
  C   C2        1.0  0.9592707730819673  0.42397820278900017  0.2687703121000543  1.0000
  C   C3        1.0  0.5407292275095749  0.9239782027139068  0.2687703121000543  1.0000
  C   C4        1.0  0.4592707725821455  0.07602179778665213  0.2687703121000543  1.0000
  C   C5        1.0  0.040729227009753045  0.07602179778665213  0.768770312290017  1.0000
  C   C6        1.0  0.9592707730819673  0.9239782027139068  0.768770312290017  1.0000
  C   C7        1.0  0.5407292275095749  0.42397820278900017  0.768770312290017  1.0000
  C   C8        1.0  0.4592707725821455  0.5760217977115588  0.768770312290017  1.0000
  C   C9        1.0  0.13478936722168847  0.5539613281147616  0.1842013524003151  1.0000
  C   C10       1.0  0.865210632870032  0.4460386717350517  0.1842013524003151  1.0000
  C   C11       1.0  0.634789366813587  0.9460386716599584  0.1842013524003151  1.0000
  C   C12       1.0  0.36521063327813336  0.05396132818985499  0.1842013524003151  1.0000
  C   C13       1.0  0.13478936722168847  0.05396132818985499  0.6842013525902778  1.0000
  C   C14       1.0  0.865210632870032  0.9460386716599584  0.6842013525902778  1.0000
  C   C15       1.0  0.634789366813587  0.4460386717350517  0.6842013525902778  1.0000
  C   C16       1.0  0.36521063327813336  0.5539613281147616  0.6842013525902778  1.0000
  C   C17       1.0  0.10374504211181032  0.4669773065847397  0.40812116426092077  1.0000
  C   C18       1.0  0.89625495797991  0.5330226932650737  0.40812116426092077  1.0000
  C   C19       1.0  0.6037450417037089  0.03302269334016697  0.40812116426092077  1.0000
  C   C20       1.0  0.39625495838801145  0.9669773065096464  0.40812116426092077  1.0000
  C   C21       1.0  0.10374504211181032  0.9669773065096464  0.9081211644508833  1.0000
  C   C22       1.0  0.89625495797991  0.03302269334016697  0.9081211644508833  1.0000
  C   C23       1.0  0.6037450417037089  0.5330226932650737  0.9081211644508833  1.0000
  C   C24       1.0  0.39625495838801145  0.4669773065847397  0.9081211644508833  1.0000
  C   C25       1.0  0.14958640188065658  0.5298447436820418  0.492775291707217  1.0000
  C   C26       1.0  0.8504135982110638  0.4701552568185172  0.492775291707217  1.0000
  C   C27       1.0  0.6495864023804784  0.9701552567434238  0.492775291707217  1.0000
  C   C28       1.0  0.350413597711242  0.02984474375713508  0.492775291707217  1.0000
  C   C29       1.0  0.14958640188065658  0.02984474375713508  0.9927752918971797  1.0000
  C   C30       1.0  0.8504135982110638  0.9701552567434238  0.9927752918971797  1.0000
  C   C31       1.0  0.6495864023804784  0.4701552568185172  0.9927752918971797  1.0000
  C   C32       1.0  0.350413597711242  0.5298447436820418  0.9927752918971797  1.0000
  N   N1        1.0  0.0  0.4999999999249067  0.338438762010381  1.0000
  N   N2        1.0  0.4999999995918985  0.0  0.338438762010381  1.0000
  N   N3        1.0  0.0  0.0  0.8384387613927295  1.0000
  N   N4        1.0  0.4999999995918985  0.4999999999249067  0.8384387613927295  1.0000
  I   I1        1.0  0.1621793583908972  0.31107684304415195  0.6687611797524221  1.0000
  I   I2        1.0  0.8378206417008232  0.6889231568056614  0.6687611797524221  1.0000
  I   I3        1.0  0.662179358890719  0.1889231568807547  0.6687611797524221  1.0000
  I   I4        1.0  0.3378206412010013  0.8110768429690587  0.6687611797524221  1.0000
  I   I5        1.0  0.1621793583908972  0.8110768429690587  0.16876117956245942  1.0000
  I   I6        1.0  0.8378206417008232  0.1889231568807547  0.16876117956245942  1.0000
  I   I7        1.0  0.662179358890719  0.6889231568056614  0.16876117956245942  1.0000
  I   I8        1.0  0.3378206412010013  0.31107684304415195  0.16876117956245942  1.0000
  I   I9        1.0  0.35578388301591596  0.3053788757150399  0.5231644311770872  1.0000
  I   I10       1.0  0.6442161170758044  0.6946211241347734  0.5231644311770872  1.0000
  I   I11       1.0  0.8557838826078145  0.1946211242098668  0.5231644311770872  1.0000
  I   I12       1.0  0.14421611748390584  0.8053788756399466  0.5231644311770872  1.0000
  I   I13       1.0  0.35578388301591596  0.8053788756399466  0.023164430987124538  1.0000
  I   I14       1.0  0.6442161170758044  0.1946211242098668  0.023164430987124538  1.0000
  I   I15       1.0  0.8557838826078145  0.6946211241347734  0.023164430987124538  1.0000
  I   I16       1.0  0.14421611748390584  0.3053788757150399  0.023164430987124538  1.0000
  I   I17       1.0  0.5766323457341909  0.31812818497882656  0.34915931429453334  1.0000
  I   I18       1.0  0.4233676543575296  0.6818718148709867  0.34915931429453334  1.0000
  I   I19       1.0  0.07663234614229225  0.18187181494608012  0.34915931429453334  1.0000
  I   I20       1.0  0.9233676539494281  0.8181281849037333  0.34915931429453334  1.0000
  I   I21       1.0  0.5766323457341909  0.8181281849037333  0.849159313676882  1.0000
  I   I22       1.0  0.4233676543575296  0.18187181494608012  0.849159313676882  1.0000
  I   I23       1.0  0.07663234614229225  0.6818718148709867  0.849159313676882  1.0000
  I   I24       1.0  0.9233676539494281  0.31812818497882656  0.849159313676882  1.0000
  I   I25       1.0  0.4999999995918985  0.4999999999249067  0.3440212487146117  1.0000
  I   I26       1.0  0.0  0.0  0.3440212487146117  1.0000
  I   I27       1.0  0.4999999995918985  0.0  0.8440212489045744  1.0000
  I   I28       1.0  0.0  0.4999999999249067  0.8440212489045744  1.0000
