data_image0
_chemical_formula_structural       H32C36N8F16S4I8
_chemical_formula_sum              "H32 C36 N8 F16 S4 I8"
_cell_length_a       12.085244339117866
_cell_length_b       7.928920322032728
_cell_length_c       14.393611277676465
_cell_angle_alpha    90.0
_cell_angle_beta     98.97355982253217
_cell_angle_gamma    90.0

_space_group_name_H-M_alt    "P 1"
_space_group_IT_number       1

loop_
  _space_group_symop_operation_xyz
  'x, y, z'

loop_
  _atom_site_type_symbol
  _atom_site_label
  _atom_site_symmetry_multiplicity
  _atom_site_fract_x
  _atom_site_fract_y
  _atom_site_fract_z
  _atom_site_occupancy
  H   H1        1.0  0.9461549389436319  0.8297033937545533  0.3923128888603484  1.0000
  H   H2        1.0  0.05384506069379655  0.3297033926215319  0.10768711108397806  1.0000
  H   H3        1.0  0.05384506079448003  0.17029660725028362  0.6076871115695943  1.0000
  H   H4        1.0  0.9461549389149614  0.6702966071220992  0.892312888642604  1.0000
  H   H5        1.0  0.9316053232145808  0.614677586866017  0.4260586040094467  1.0000
  H   H6        1.0  0.06839467642284781  0.11467758699420146  0.07394139593487976  1.0000
  H   H7        1.0  0.06839467652353129  0.38532241287761415  0.573941396420496  1.0000
  H   H8        1.0  0.9316053231859099  0.8853224127494297  0.9260586037917025  1.0000
  H   H9        1.0  0.044300759384667834  0.6760285628177201  0.3668563224622473  1.0000
  H   H10       1.0  0.9556992402527605  0.17602856294590458  0.13314367748207914  1.0000
  H   H11       1.0  0.95569924022409  0.323971436925911  0.6331436772643347  1.0000
  H   H12       1.0  0.04430075948535132  0.8239714367977266  0.8668563229478636  1.0000
  H   H13       1.0  0.7751140691861041  0.8476298634663286  0.6476201558065541  1.0000
  H   H14       1.0  0.2248859305233373  0.3476298635945131  0.8523798444056444  1.0000
  H   H15       1.0  0.22488593055200792  0.15237013753850825  0.3523798446233887  1.0000
  H   H16       1.0  0.7751140690854205  0.6523701374103238  0.14762015532093775  1.0000
  H   H17       1.0  0.8965815234119806  0.9574966113486771  0.7035894628837865  1.0000
  H   H18       1.0  0.10341847712512198  0.45749661147686166  0.7964105373295257  1.0000
  H   H19       1.0  0.10341847715379258  0.0425033883949539  0.29641053754727004  1.0000
  H   H20       1.0  0.8965815233112971  0.5425033895279753  0.20358946239817033  1.0000
  H   H21       1.0  0.8824263275313362  0.7358418174271971  0.722097387563336  1.0000
  H   H22       1.0  0.1175736721781051  0.23584181755538156  0.7779026126488625  1.0000
  H   H23       1.0  0.11757367220677571  0.26415818357763976  0.2779026128666068  1.0000
  H   H24       1.0  0.8824263282583139  0.7641581834494553  0.22209738707883359  1.0000
  H   H25       1.0  0.8648823723196083  0.786437973487087  0.525937285671305  1.0000
  H   H26       1.0  0.13511762726047896  0.2864379736152714  0.9740627138375328  1.0000
  H   H27       1.0  0.13511762728914953  0.21356202625654416  0.4740627140552771  1.0000
  H   H28       1.0  0.8648823723482788  0.7135620261283597  0.025937285889049387  1.0000
  H   H29       1.0  0.1482982974297143  0.7447691678261293  0.509549331132839  1.0000
  H   H30       1.0  0.8517017022797272  0.2447691679543137  0.9904506690793594  1.0000
  H   H31       1.0  0.8517017023083976  0.25523083191750184  0.4904506692971038  1.0000
  H   H32       1.0  0.14829829732903083  0.7552308317893174  0.0095493306472227  1.0000
  C   C1        1.0  0.5501442905530914  0.582825079873583  0.3723381981850585  1.0000
  C   C2        1.0  0.4498557099119983  0.08282508000176739  0.12766180176038186  1.0000
  C   C3        1.0  0.4498557100126818  0.4171749198700482  0.6276618022459982  1.0000
  C   C4        1.0  0.5501442905244208  0.9171749197418637  0.8723381979673142  1.0000
  C   C5        1.0  0.5505798437369439  0.7591231675357419  0.3808947533405659  1.0000
  C   C6        1.0  0.44942015590048456  0.2591231676639264  0.1191052466037606  1.0000
  C   C7        1.0  0.44942015600116797  0.24087683220788914  0.6191052470893769  1.0000
  C   C8        1.0  0.5505798437082734  0.7408768320797047  0.8808947531228215  1.0000
  C   C9        1.0  0.45293552833024464  0.84054737206533  0.3967153283517333  1.0000
  C   C10       1.0  0.5470644722641991  0.34054737219351444  0.1032846722970677  1.0000
  C   C11       1.0  0.5470644722355286  0.1594526276783011  0.6032846720793233  1.0000
  C   C12       1.0  0.452935528301574  0.6594526275501167  0.8967153281339889  1.0000
  C   C13       1.0  0.3558915239216576  0.7508203561407193  0.40441654145957145  1.0000
  C   C14       1.0  0.6441084765434321  0.250820355007698  0.09558345848586895  1.0000
  C   C15       1.0  0.6441084765147616  0.24917964486411756  0.5955834582681246  1.0000
  C   C16       1.0  0.35589152402234103  0.7491796447359331  0.9044165419451877  1.0000
  C   C17       1.0  0.35514373361771295  0.5764017160445284  0.39604120058276765  1.0000
  C   C18       1.0  0.6448562668473767  0.07640171617271292  0.10395879936267267  1.0000
  C   C19       1.0  0.6448562668187061  0.42359828369910263  0.6039587991449284  1.0000
  C   C20       1.0  0.3551437335890424  0.9235982835709181  0.8960412003650233  1.0000
  C   C21       1.0  0.45228576694171546  0.49429383331162485  0.38034416046335834  1.0000
  C   C22       1.0  0.5477142335233742  0.9942938331834404  0.119655839482082  1.0000
  C   C23       1.0  0.5477142334947037  0.5057061664320063  0.6196558392643376  1.0000
  C   C24       1.0  0.4522857670423989  0.005706166560190747  0.8803441609489746  1.0000
  C   C25       1.0  0.028188842681561414  0.789275731855963  0.5885042398864461  1.0000
  C   C26       1.0  0.9718111578555412  0.28927573198414747  0.9114957603268662  1.0000
  C   C27       1.0  0.9718111578842117  0.21072426788766807  0.4114957605446105  1.0000
  C   C28       1.0  0.028188842580877945  0.7107242677594836  0.08850423940082987  1.0000
  C   C29       1.0  0.9924084285149891  0.7154261386934625  0.4189254692810774  1.0000
  C   C30       1.0  0.007591571122439363  0.21542613882164693  0.08107453066324916  1.0000
  C   C31       1.0  0.007591571093768745  0.2845738623113744  0.5810745304455048  1.0000
  C   C32       1.0  0.9924084284863186  0.7845738621831899  0.918925469063333  1.0000
  C   C33       1.0  0.8655502157525844  0.8382810445869132  0.6705327919484421  1.0000
  C   C34       1.0  0.1344497846551641  0.3382810447150976  0.8294672075615095  1.0000
  C   C35       1.0  0.13444978468383473  0.1617189551567179  0.32946720777925387  1.0000
  C   C36       1.0  0.8655502157812549  0.6617189550285335  0.17053279216618653  1.0000
  N   N1        1.0  0.9173128022270697  0.8031290959381789  0.5878833007598486  1.0000
  N   N2        1.0  0.08268719831003292  0.3031290960663634  0.9121166994534635  1.0000
  N   N3        1.0  0.08268719820934943  0.19687090380545216  0.4121166989678473  1.0000
  N   N4        1.0  0.9173128022557403  0.6968709036772677  0.08788330097759307  1.0000
  N   N5        1.0  0.06412143966660735  0.7471220783413427  0.5076843354611487  1.0000
  N   N6        1.0  0.9358785608704953  0.24712207846952708  0.9923156647521637  1.0000
  N   N7        1.0  0.9358785608991659  0.25287792140228843  0.492315664969908  1.0000
  N   N8        1.0  0.06412143969527796  0.752877921274104  0.00768433567889304  1.0000
  F   F1        1.0  0.4478194751222572  0.010107709088373558  0.40348487048154186  1.0000
  F   F2        1.0  0.5521805253428325  0.5101077089601891  0.0965151294638985  1.0000
  F   F3        1.0  0.5521805254435159  0.9898922919164633  0.5965151299495147  1.0000
  F   F4        1.0  0.4478194750935866  0.48989229078344204  0.9034848702637975  1.0000
  F   F5        1.0  0.26157653136085657  0.832587558189458  0.4184808538676404  1.0000
  F   F6        1.0  0.7384234691042332  0.3325875570564366  0.08151914607780002  1.0000
  F   F7        1.0  0.7384234690755626  0.16741244281537893  0.5815191458600557  1.0000
  F   F8        1.0  0.2615765313321859  0.6674124426871945  0.918480853649896  1.0000
  F   F9        1.0  0.2606195991531084  0.48891191896933767  0.40262331039323246  1.0000
  F   F10       1.0  0.73938040048432  0.9889119188411533  0.09737668955109405  1.0000
  F   F11       1.0  0.7393804004556496  0.5110880807742935  0.5973766893333498  1.0000
  F   F12       1.0  0.2606195991244378  0.011088080902477898  0.9026233101754881  1.0000
  F   F13       1.0  0.4478590306690791  0.3243958578890841  0.3731507600973037  1.0000
  F   F14       1.0  0.5521409689683493  0.8243958577608996  0.1268492398470228  1.0000
  F   F15       1.0  0.5521409689396788  0.675604141854547  0.6268492396292784  1.0000
  F   F16       1.0  0.44785903076976263  0.17560414198273144  0.8731507605829201  1.0000
  S   S1        1.0  0.12214636771740252  0.8235573652890399  0.688663688801851  1.0000
  S   S2        1.0  0.8778536328197002  0.3235573654172244  0.8113363114114612  1.0000
  S   S3        1.0  0.8778536327190165  0.17644263445459119  0.3113363109258449  1.0000
  S   S4        1.0  0.12214636774607315  0.6764426355876124  0.18866368901959543  1.0000
  I   I1        1.0  0.6889168322324082  0.4347229231730161  0.34656232759427713  1.0000
  I   I2        1.0  0.3110831683620357  0.9347229230448316  0.15343767305452394  1.0000
  I   I3        1.0  0.311083168333365  0.565277076570615  0.6534376728367794  1.0000
  I   I4        1.0  0.6889168322037376  0.06527707669879944  0.8465623273765328  1.0000
  I   I5        1.0  0.6892861234484142  0.9151440606404985  0.36630390325083956  1.0000
  I   I6        1.0  0.3107138761890142  0.4151440595074772  0.13369609669348684  1.0000
  I   I7        1.0  0.3107138761603436  0.0848559403643384  0.6336960964757425  1.0000
  I   I8        1.0  0.6892861235490978  0.584855940236154  0.8663039037364558  1.0000
