data_image0
_chemical_formula_structural       H28C28N8S4I28
_chemical_formula_sum              "H28 C28 N8 S4 I28"
_cell_length_a       7.779524178792905
_cell_length_b       30.38468467091979
_cell_length_c       9.011823299640566
_cell_angle_alpha    90.0
_cell_angle_beta     113.74234530786991
_cell_angle_gamma    90.0

_space_group_name_H-M_alt    "P 1"
_space_group_IT_number       1

loop_
  _space_group_symop_operation_xyz
  'x, y, z'

loop_
  _atom_site_type_symbol
  _atom_site_label
  _atom_site_symmetry_multiplicity
  _atom_site_fract_x
  _atom_site_fract_y
  _atom_site_fract_z
  _atom_site_occupancy
  H   H1        1.0  0.006752512619843285  0.34597336302327925  0.04477876274986999  1.0000
  H   H2        1.0  0.993247487607363  0.8459733628435868  0.4552212365835653  1.0000
  H   H3        1.0  0.9932474880894865  0.6540266369464492  0.9552212369828506  1.0000
  H   H4        1.0  0.006752511815461975  0.15402663712614162  0.5447787631468366  1.0000
  H   H5        1.0  0.4724071773030601  0.34725568668146384  0.8105938918137676  1.0000
  H   H6        1.0  0.5275928226018884  0.8472556865017715  0.6894061083159194  1.0000
  H   H7        1.0  0.527592822119765  0.6527443136173778  0.1894061079166342  1.0000
  H   H8        1.0  0.4724071781074414  0.152744313467957  0.31059389141680105  1.0000
  H   H9        1.0  0.5366395582667562  0.3861402021140288  0.971854965869608  1.0000
  H   H10       1.0  0.4633604416381923  0.8861402022634496  0.5281450342600792  1.0000
  H   H11       1.0  0.46336044115606884  0.6138597978556997  0.028145033860793936  1.0000
  H   H12       1.0  0.536639558347569  0.11385979770627888  0.4718549666825724  1.0000
  H   H13       1.0  0.640587940905527  0.33288245540623607  0.006739307401829303  1.0000
  H   H14       1.0  0.3594120593216794  0.8328824552265437  0.49326069193160593  1.0000
  H   H15       1.0  0.35941205980380286  0.6671175448926057  0.9932606923308912  1.0000
  H   H16       1.0  0.6405879413876504  0.16711754474318483  0.5067393078011146  1.0000
  H   H17       1.0  0.5617926270133188  0.41406825729019964  0.6754537057085318  1.0000
  H   H18       1.0  0.43820737289162964  0.9140682571105073  0.8245462944211552  1.0000
  H   H19       1.0  0.43820737240950625  0.585931742679529  0.32454629402187  1.0000
  H   H20       1.0  0.5617926265311953  0.08593174285922121  0.17545370530924653  1.0000
  H   H21       1.0  0.6982483839247411  0.45404630060893014  0.5040955701575666  1.0000
  H   H22       1.0  0.3017516159802074  0.9540463004292379  0.9959044299721205  1.0000
  H   H23       1.0  0.30175161549808394  0.5459536993607983  0.4959044295728352  1.0000
  H   H24       1.0  0.6982483852920587  0.045953699540490646  0.004095570972849752  1.0000
  H   H25       1.0  0.9388173858803768  0.4483224271547998  0.5559270980492287  1.0000
  H   H26       1.0  0.06118261402457164  0.9483224273042207  0.9440729020804585  1.0000
  H   H27       1.0  0.061182614105384385  0.5516775728149287  0.44407290289342294  1.0000
  H   H28       1.0  0.9388173853982533  0.051677572665507855  0.05592709764994336  1.0000
  C   C1        1.0  0.7142298844577254  0.289866731064989  0.269909866219571  1.0000
  C   C2        1.0  0.2857701163324171  0.7898667308852966  0.23009013432611394  1.0000
  C   C3        1.0  0.2857701168145405  0.7101332689047395  0.7300901347253992  1.0000
  C   C4        1.0  0.7142298843769128  0.21013326908443183  0.7699098654066067  1.0000
  C   C5        1.0  0.5316428176367293  0.29463913734698616  0.2410182689849617  1.0000
  C   C6        1.0  0.46835718186690856  0.7946391371672938  0.2589817315584046  1.0000
  C   C7        1.0  0.46835718234903195  0.7053608626227423  0.7589817319576898  1.0000
  C   C8        1.0  0.5316428175559165  0.2053608628024347  0.7410182681719971  1.0000
  C   C9        1.0  0.8427018866957605  0.41702870499516104  0.70742519625131  1.0000
  C   C10       1.0  0.15729811320918796  0.9170287051445818  0.792574803878377  1.0000
  C   C11       1.0  0.15729811401356927  0.5829712949745675  0.29257480348141046  1.0000
  C   C12       1.0  0.8427018862136372  0.08297129482514665  0.20742519585202474  1.0000
  C   C13       1.0  0.7436868128747631  0.3758779014392935  0.8749891193217119  1.0000
  C   C14       1.0  0.2563131883166901  0.8758779012596012  0.6250108808102938  1.0000
  C   C15       1.0  0.25631318839750283  0.6241220988595482  0.1250108816232583  1.0000
  C   C16       1.0  0.7436868123926398  0.12412209871012737  0.3749891189224267  1.0000
  C   C17       1.0  0.9302040503532305  0.3670154490914591  0.9421994757083666  1.0000
  C   C18       1.0  0.06979594955171799  0.8670154489117669  0.5578005244213204  1.0000
  C   C19       1.0  0.06979594906959455  0.6329845508782694  0.0578005240220352  1.0000
  C   C20       1.0  0.9302040498711072  0.13298455105796173  0.4421994753090814  1.0000
  C   C21       1.0  0.5900519209866756  0.35963287650828246  0.9186320645205425  1.0000
  C   C22       1.0  0.4099480789182729  0.8596328766577034  0.5813679356091446  1.0000
  C   C23       1.0  0.40994807843614944  0.6403671234614461  0.08136793520985934  1.0000
  C   C24       1.0  0.5900519217910569  0.1403671233120252  0.4186320641235759  1.0000
  C   C25       1.0  0.4167588477941951  0.5011467153573409  0.005678768805566833  1.0000
  C   C26       1.0  0.5832411511465065  0.0011467155370332583  0.4943212305255497  1.0000
  C   C27       1.0  0.58324115162863  0.4988532846123876  0.9943212309248349  1.0000
  C   C28       1.0  0.41675884827631854  0.9988532844326952  0.5056787692048521  1.0000
  N   N1        1.0  0.6990035120701087  0.4045474976333826  0.7442157972515182  1.0000
  N   N2        1.0  0.3009964878348399  0.9045474974536902  0.7557842028781689  1.0000
  N   N3        1.0  0.30099648791565264  0.595452502336346  0.25578420369113336  1.0000
  N   N4        1.0  0.69900351287449  0.09545250251603825  0.2442157968545516  1.0000
  N   N5        1.0  0.8263272987474032  0.4437862908909961  0.5855578579276146  1.0000
  N   N6        1.0  0.17367270115754546  0.9437862910404169  0.9144421422020726  1.0000
  N   N7        1.0  0.17367270123835815  0.5562137090787324  0.414442143015037  1.0000
  N   N8        1.0  0.8263272982652796  0.056213708929311566  0.08555785752832926  1.0000
  S   S1        1.0  0.049642962930337584  0.39406507422008874  0.8422566647679671  1.0000
  S   S2        1.0  0.9503570369746108  0.8940650743695097  0.65774333536172  1.0000
  S   S3        1.0  0.9503570383419284  0.6059349257496398  0.15774333617700312  1.0000
  S   S4        1.0  0.04964296244821419  0.10593492592933208  0.34225666436868185  1.0000
  I   I1        1.0  0.8209686849947101  0.2359413595251566  0.18863275631163529  1.0000
  I   I2        1.0  0.17903131579543252  0.7359413596745774  0.3113672442340497  1.0000
  I   I3        1.0  0.1790313149910512  0.764058640444572  0.8113672446310163  1.0000
  I   I4        1.0  0.8209686849138974  0.2640586402951511  0.6886327554986709  1.0000
  I   I5        1.0  0.9210985237887652  0.33807921132817986  0.3909312109791311  1.0000
  I   I6        1.0  0.07890147571487269  0.8380792111484876  0.10906878956423519  1.0000
  I   I7        1.0  0.07890147563405994  0.6619207889706618  0.6090687887512707  1.0000
  I   I8        1.0  0.9210985242708886  0.16192078882124095  0.8909312113784164  1.0000
  I   I9        1.0  0.32400024724266663  0.2492081662853992  0.10447627970802795  1.0000
  I   I10       1.0  0.675999753547476  0.74920816643482  0.39552372083765697  1.0000
  I   I11       1.0  0.6759997534666633  0.7507918336843292  0.8955237200246926  1.0000
  I   I12       1.0  0.32400024643828534  0.2507918335349084  0.6044762801049945  1.0000
  I   I13       1.0  0.42513732795545967  0.34822143769444325  0.3280149720176952  1.0000
  I   I14       1.0  0.5748626722717467  0.8482214375147509  0.17198502731574003  1.0000
  I   I15       1.0  0.5748626727538702  0.6517785622752852  0.6719850277150253  1.0000
  I   I16       1.0  0.4251373271510784  0.15177856245497762  0.8280149724146618  1.0000
  I   I17       1.0  0.3632228502654695  0.4747916648220819  0.20162842387138977  1.0000
  I   I18       1.0  0.6367771492381682  0.9747916649715028  0.2983715766719765  1.0000
  I   I19       1.0  0.6367771491573556  0.5252083351476465  0.7983715758590121  1.0000
  I   I20       1.0  0.363222850747593  0.025208334998225727  0.701628424270675  1.0000
  I   I21       1.0  0.17419130122943344  0.5300201803776855  0.8261964112663631  1.0000
  I   I22       1.0  0.8258086981125791  0.030020180228264574  0.6738035876510744  1.0000
  I   I23       1.0  0.8258086981933916  0.4699798195920431  0.17380358846403876  1.0000
  I   I24       1.0  0.17419130131024613  0.969979819741464  0.32619641207932754  1.0000
  I   I25       1.0  0.23290685520633375  0.42837780154609656  0.49804484171690333  1.0000
  I   I26       1.0  0.7670931442973041  0.9283778016955174  0.0019551588264628975  1.0000
  I   I27       1.0  0.7670931442164913  0.571622198423632  0.5019551580134984  1.0000
  I   I28       1.0  0.23290685568845726  0.07162219860332428  0.9980448421161888  1.0000
