data_image0
_chemical_formula_structural       H40C52N4O12Cl8I4
_chemical_formula_sum              "H40 C52 N4 O12 Cl8 I4"
_cell_length_a       8.1255537462949
_cell_length_b       11.181767981474614
_cell_length_c       17.36963093337433
_cell_angle_alpha    98.56295051851447
_cell_angle_beta     94.27265687433416
_cell_angle_gamma    110.07669209435349

_space_group_name_H-M_alt    "P 1"
_space_group_IT_number       1

loop_
  _space_group_symop_operation_xyz
  'x, y, z'

loop_
  _atom_site_type_symbol
  _atom_site_label
  _atom_site_symmetry_multiplicity
  _atom_site_fract_x
  _atom_site_fract_y
  _atom_site_fract_z
  _atom_site_occupancy
  H   H1        1.0  0.6867498178699332  0.07676451671954596  0.49174843219957015  1.0000
  H   H2        1.0  0.3132501814882993  0.9232354827800204  0.508251567915147  1.0000
  H   H3        1.0  0.8509399578131519  0.03951958443102155  0.38256270037952855  1.0000
  H   H4        1.0  0.149060041815107  0.9604804158414405  0.6174372991482316  1.0000
  H   H5        1.0  0.8457394928510029  0.6872179199449842  0.46256637603520884  1.0000
  H   H6        1.0  0.15426050695116225  0.312782080506941  0.5374336240801538  1.0000
  H   H7        1.0  0.6764261542702568  0.7405674048790548  0.5679107862474143  1.0000
  H   H8        1.0  0.3235738455319084  0.2594325955728704  0.43208921386794824  1.0000
  H   H9        1.0  0.586829448624527  0.5941819056024656  0.6378202934572698  1.0000
  H   H10       1.0  0.41317055241116074  0.40581809485479653  0.36217970666022214  1.0000
  H   H11       1.0  0.47955043812378706  0.5529876053690099  0.763992915870645  1.0000
  H   H12       1.0  0.5204495616783781  0.4470123950829153  0.23600708424471759  1.0000
  H   H13       1.0  0.5531845218629504  0.1823759431875113  0.7159152168901858  1.0000
  H   H14       1.0  0.4468154789988313  0.8176240570902877  0.2840847826397038  1.0000
  H   H15       1.0  0.6652237895795108  0.24448440179657238  0.5925949689656098  1.0000
  H   H16       1.0  0.33477620977872175  0.7555155977029939  0.40740503114910737  1.0000
  H   H17       1.0  0.3053012450133995  0.5540266978875205  0.46496828063285195  1.0000
  H   H18       1.0  0.6946987543448331  0.4459733016120459  0.5350317194818653  1.0000
  H   H19       1.0  0.8298706608903468  0.7901375274181299  0.8806377561377491  1.0000
  H   H20       1.0  0.1701293384678858  0.20986247208143646  0.11936224397696814  1.0000
  H   H21       1.0  0.9682650006389208  0.4498679212922043  0.8776993337174507  1.0000
  H   H22       1.0  0.03173499916324418  0.5501320791597207  0.12230066639791193  1.0000
  H   H23       1.0  0.06501696525800094  0.46936796893997773  0.7475287569980986  1.0000
  H   H24       1.0  0.9349830341002316  0.5306320305595886  0.25247124311661856  1.0000
  H   H25       1.0  0.02313631530648171  0.47404334244863006  0.613914244624355  1.0000
  H   H26       1.0  0.9768636852852735  0.5259566570562731  0.38608575549249163  1.0000
  H   H27       1.0  0.23894781193987363  0.5667982714207637  0.66640458414092  1.0000
  H   H28       1.0  0.7610521886518815  0.4332017280841396  0.3335954159759266  1.0000
  H   H29       1.0  0.5888041305128685  0.9370049411077264  0.6040574856548291  1.0000
  H   H30       1.0  0.4111958688453641  0.06299505839183997  0.3959425144598881  1.0000
  H   H31       1.0  0.26392970778456903  0.7214180822480206  0.056370494514019445  1.0000
  H   H32       1.0  0.7360702932511191  0.2785819182092416  0.9436295056034726  1.0000
  H   H33       1.0  0.17130413084529558  0.057604565786613146  0.9990217570376008  1.0000
  H   H34       1.0  0.8286958697464596  0.9423954337182899  0.0009782430792458527  1.0000
  H   H35       1.0  0.29714770344217156  0.032181647330271866  0.8759216297389519  1.0000
  H   H36       1.0  0.7028522975935164  0.9678183531269903  0.12407837037854019  1.0000
  H   H37       1.0  0.5236109684454839  0.02308309743528322  0.8009280163290075  1.0000
  H   H38       1.0  0.47638903073884226  0.9769169018848198  0.19907198319810734  1.0000
  H   H39       1.0  0.30079271693968584  0.929578904878055  0.7571792135971066  1.0000
  H   H40       1.0  0.6992072840960021  0.0704210955792072  0.24282078652038547  1.0000
  C   C1        1.0  0.7211272404862875  0.9902166443918172  0.48281415985187187  1.0000
  C   C2        1.0  0.27887276037549397  0.00978335588598169  0.5171858396780176  1.0000
  C   C3        1.0  0.8144938417576749  0.9693641122278063  0.4213197298988626  1.0000
  C   C4        1.0  0.18550615787058414  0.030635888044655887  0.5786802696288976  1.0000
  C   C5        1.0  0.8591596887518292  0.8586400249460597  0.41314890060485226  1.0000
  C   C6        1.0  0.14084031183992587  0.14135997455884344  0.5868510995119944  1.0000
  C   C7        1.0  0.8118929758267545  0.7736431941613532  0.4657984882270982  1.0000
  C   C8        1.0  0.1881070233575717  0.22635680515874987  0.5342015113000166  1.0000
  C   C9        1.0  0.7175192476052554  0.802697332646702  0.524850378942302  1.0000
  C   C10       1.0  0.28248075157907065  0.19730266667340116  0.47514962058481275  1.0000
  C   C11       1.0  0.5787584200380022  0.5042819280211195  0.6570659248854306  1.0000
  C   C12       1.0  0.4212415793202304  0.495718071478447  0.34293407522928665  1.0000
  C   C13       1.0  0.5164713234386009  0.48035009929251543  0.7279137926827218  1.0000
  C   C14       1.0  0.48352867759708695  0.5196499011647466  0.2720862074347701  1.0000
  C   C15       1.0  0.5070715401109802  0.3634287214648652  0.7501819407504788  1.0000
  C   C16       1.0  0.49292846092470766  0.636571278992397  0.24981805936701315  1.0000
  C   C17       1.0  0.5596354925435544  0.2753617388244841  0.7018823012815634  1.0000
  C   C18       1.0  0.4403645080482009  0.7246382606804191  0.29811769883528333  1.0000
  C   C19       1.0  0.6209793923073139  0.30859575979641163  0.6324977400417023  1.0000
  C   C20       1.0  0.3790206070509186  0.6914042397031547  0.3675022600730149  1.0000
  C   C21       1.0  0.9400000503945125  0.7320816928203429  0.7791105834620367  1.0000
  C   C22       1.0  0.0599999494076528  0.2679183076315823  0.2208894166533259  1.0000
  C   C23       1.0  0.8818218320621937  0.720086352054454  0.8519574199556675  1.0000
  C   C24       1.0  0.11817816729603886  0.27991364744511227  0.1480425801590497  1.0000
  C   C25       1.0  0.892404434347037  0.6178387128692443  0.8869644824448207  1.0000
  C   C26       1.0  0.10759556545512824  0.382161287582681  0.11303551767054176  1.0000
  C   C27       1.0  0.9577978229330555  0.5280100943599029  0.8493558697667813  1.0000
  C   C28       1.0  0.0422021768691099  0.47198990609202246  0.15064413034858135  1.0000
  C   C29       1.0  0.01362960356886052  0.5400337310039208  0.7759504807834796  1.0000
  C   C30       1.0  0.9863703962333047  0.4599662694480044  0.22404951933188288  1.0000
  C   C31       1.0  0.006190252174822004  0.6421771397875945  0.7397365690247336  1.0000
  C   C32       1.0  0.9938097476273431  0.35782286066433067  0.26026343109062894  1.0000
  C   C33       1.0  0.1264089864151125  0.5717216681577693  0.6293190052723301  1.0000
  C   C34       1.0  0.87359101294312  0.428278331341797  0.3706809948423871  1.0000
  C   C35       1.0  0.1922991028871224  0.6132576973212577  0.5544437751532236  1.0000
  C   C36       1.0  0.8077008977046328  0.38674230218364564  0.4455562249636231  1.0000
  C   C37       1.0  0.3441184362589858  0.7766878633463085  0.9478593554113256  1.0000
  C   C38       1.0  0.6558815630992468  0.22331213615325787  0.052140644703391636  1.0000
  C   C39       1.0  0.27116432446500993  0.789675358094043  0.01710282528404966  1.0000
  C   C40       1.0  0.7288356761267453  0.21032464141086032  0.9828971748327971  1.0000
  C   C41       1.0  0.20848928702216377  0.8906909428521042  0.034959438489693836  1.0000
  C   C42       1.0  0.7915107140135241  0.10930905760515781  0.965040561627798  1.0000
  C   C43       1.0  0.21905183078967216  0.9782469099680023  0.9846524420715533  1.0000
  C   C44       1.0  0.7809481685685605  0.02175308953156407  0.015347558043163994  1.0000
  C   C45       1.0  0.2909208434878398  0.9635835503616819  0.9149140657538684  1.0000
  C   C46       1.0  0.7090791563143255  0.03641645009024331  0.08508593436149423  1.0000
  C   C47       1.0  0.3526780855384745  0.8622141622311735  0.895062017848919  1.0000
  C   C48       1.0  0.6473219142636908  0.13778583822075174  0.10493798226644349  1.0000
  C   C49       1.0  0.4316233677394369  0.9246656954485362  0.7743944240869015  1.0000
  C   C50       1.0  0.5683766320627284  0.07533430500338902  0.2256055760284611  1.0000
  C   C51       1.0  0.49657456314822357  0.8764631571267166  0.7004483301907025  1.0000
  C   C52       1.0  0.503425436210009  0.12353684237284977  0.29955166992401466  1.0000
  N   N1        1.0  0.6724828714053297  0.9083136931185535  0.5332293013132966  1.0000
  N   N2        1.0  0.3275171291864254  0.09168630638634975  0.4667706988035498  1.0000
  N   N3        1.0  0.6301293401887569  0.4204445422291057  0.610405850420614  1.0000
  N   N4        1.0  0.369870660846931  0.5795554582281565  0.38959414969687794  1.0000
  O   O1        1.0  0.05903592922793644  0.6623560559732646  0.6687031117851381  1.0000
  O   O2        1.0  0.9409640705742287  0.3376439444786605  0.3312968883302245  1.0000
  O   O3        1.0  0.1828378136582686  0.7086998149774101  0.5299664149223366  1.0000
  O   O4        1.0  0.817162185699964  0.2913001845221562  0.47003358519238064  1.0000
  O   O5        1.0  0.2592365639363481  0.5299509792801799  0.519848514507646  1.0000
  O   O6        1.0  0.7407634370993398  0.47004902117708225  0.480151485609846  1.0000
  O   O7        1.0  0.4210337789958835  0.8384708087257687  0.8277751401018759  1.0000
  O   O8        1.0  0.5789662208062817  0.16152919172615654  0.17222486001348664  1.0000
  O   O9        1.0  0.5388028276272175  0.9671684299807692  0.6567641042918768  1.0000
  O   O10       1.0  0.46119717173101493  0.032831569518797045  0.34323589582284053  1.0000
  O   O11       1.0  0.5054809622645723  0.7683520499808042  0.6843003449658983  1.0000
  O   O12       1.0  0.49451903753759296  0.23164795047112102  0.31569965514946435  1.0000
  Cl  Cl1       1.0  0.9355297650127994  0.8604135238738908  0.7357274037005914  1.0000
  Cl  Cl2       1.0  0.06447023602288848  0.13958647658337128  0.26427259641690054  1.0000
  Cl  Cl3       1.0  0.826470417652861  0.6031093616645926  0.9788114338485151  1.0000
  Cl  Cl4       1.0  0.17352958197539808  0.3968906386078694  0.02118856567924511  1.0000
  Cl  Cl5       1.0  0.4273984022138523  0.6549620713663028  0.9260056019507169  1.0000
  Cl  Cl6       1.0  0.5726015971443802  0.34503792813326356  0.07399439816400026  1.0000
  Cl  Cl7       1.0  0.1161812548277754  0.9066020651092092  0.12112272480938253  1.0000
  Cl  Cl8       1.0  0.8838187449743897  0.09339793534271601  0.87887727530598  1.0000
  I   I1        1.0  0.9995010616052322  0.819637388460902  0.3219212636603992  1.0000
  I   I2        1.0  0.0004989375790940134  0.18036261085920133  0.6780787358667157  1.0000
  I   I3        1.0  0.4168949733028899  0.32055792828125235  0.8564713602979697  1.0000
  I   I4        1.0  0.5831050260553428  0.679442071218314  0.14352863981674743  1.0000
