data_image0
_chemical_formula_structural       H40C52N4O12Cl8
_chemical_formula_sum              "H40 C52 N4 O12 Cl8"
_cell_length_a       15.93865394365907
_cell_length_b       3.9558534649783446
_cell_length_c       20.82379938750406
_cell_angle_alpha    90.0
_cell_angle_beta     110.3141833557394
_cell_angle_gamma    90.0

_space_group_name_H-M_alt    "P 1"
_space_group_IT_number       1

loop_
  _space_group_symop_operation_xyz
  'x, y, z'

loop_
  _atom_site_type_symbol
  _atom_site_label
  _atom_site_symmetry_multiplicity
  _atom_site_fract_x
  _atom_site_fract_y
  _atom_site_fract_z
  _atom_site_occupancy
  H   H1        1.0  0.3632142795964513  0.5119904232881101  0.37467188429978365  1.0000
  H   H2        1.0  0.13678572030887784  0.011990423917347922  0.12532811574954839  1.0000
  H   H3        1.0  0.6367857199855332  0.4880095779813138  0.6253281152868199  1.0000
  H   H4        1.0  0.8632142795017804  0.988009577352076  0.8746718843491156  1.0000
  H   H5        1.0  0.2743067443786427  0.49913883501516626  0.19152707475234254  1.0000
  H   H6        1.0  0.2256932561554083  0.9991388343859285  0.3084729252999141  1.0000
  H   H7        1.0  0.7256932560607374  0.5008611637263581  0.8084729253492462  1.0000
  H   H8        1.0  0.7743067442839718  0.0008611643555959291  0.6915270748016745  1.0000
  H   H9        1.0  0.3616489127896042  0.8083692629948074  0.21229631984052416  1.0000
  H   H10       1.0  0.13835108711572497  0.3083692636240452  0.2877036802088079  1.0000
  H   H11       1.0  0.6383510870210541  0.1916307382746165  0.7877036802581399  1.0000
  H   H12       1.0  0.8616489133236551  0.6916307376453787  0.7122963198927809  1.0000
  H   H13       1.0  0.5793308285819296  0.3569236025803421  0.05636495879909127  1.0000
  H   H14       1.0  0.9206691712892426  0.8569236019511043  0.4436350411268262  1.0000
  H   H15       1.0  0.4206691712287286  0.6430763986890818  0.9436350412995728  1.0000
  H   H16       1.0  0.07933082852141583  0.1430763993183196  0.5563649589718378  1.0000
  H   H17       1.0  0.511923846474616  0.7326352797589951  0.26098073137583344  1.0000
  H   H18       1.0  0.9880761533965564  0.23263528038823292  0.23901926855008415  1.0000
  H   H19       1.0  0.4880761539647643  0.26736471898252934  0.7390192687257552  1.0000
  H   H20       1.0  0.011923846414101954  0.767364720881191  0.7609807315485799  1.0000
  H   H21       1.0  0.656225473151814  0.8818475307247248  0.24988164806885907  1.0000
  H   H22       1.0  0.843774526719358  0.38184753135396254  0.25011835185705844  1.0000
  H   H23       1.0  0.34377452705889233  0.11815247054469916  0.7501183515206691  1.0000
  H   H24       1.0  0.1562254730913002  0.6181524699154614  0.7498816482416056  1.0000
  H   H25       1.0  0.5244962705192044  0.21674943664898713  0.6059546606184074  1.0000
  H   H26       1.0  0.975503729196783  0.7167494360197493  0.8940453395295885  1.0000
  H   H27       1.0  0.4755037292914538  0.7832505620925373  0.3940453394802566  1.0000
  H   H28       1.0  0.02449627061387537  0.28325056272177507  0.10595466056907546  1.0000
  H   H29       1.0  0.38554430124272476  0.00965531719972572  0.6171599955845827  1.0000
  H   H30       1.0  0.11445569913614152  0.5096553165704879  0.8828400046897527  1.0000
  H   H31       1.0  0.6144556991966554  0.9903446815417987  0.382840004517006  1.0000
  H   H32       1.0  0.8855443006745168  0.4903446821710365  0.11715999540891152  1.0000
  H   H33       1.0  0.24541308846838447  0.3664210474004337  0.4121350773095178  1.0000
  H   H34       1.0  0.2545869114369447  0.8664210467711959  0.08786492273981421  1.0000
  H   H35       1.0  0.7545869113422738  0.6335789513410908  0.5878649227891463  1.0000
  H   H36       1.0  0.7454130883737137  0.1335789519703285  0.9121350773588498  1.0000
  H   H37       1.0  0.2395916313715569  0.09219755312700809  0.5188900711500458  1.0000
  H   H38       1.0  0.2604083687786356  0.5921975524977704  0.9811099286122289  1.0000
  H   H39       1.0  0.7604083690678234  0.9078024481424158  0.481109928951543  1.0000
  H   H40       1.0  0.7395916316607446  0.4078024487716536  0.018890071489359807  1.0000
  C   C1        1.0  0.46353733162401617  0.45183256807258515  0.1659926903706218  1.0000
  C   C2        1.0  0.03646266828131301  0.9518325674433473  0.33400730967871023  1.0000
  C   C3        1.0  0.536462668815364  0.5481674331968387  0.8340073097309669  1.0000
  C   C4        1.0  0.9635373313006715  0.048167431298177035  0.6659926899078933  1.0000
  C   C5        1.0  0.48431060249921465  0.35051322610292657  0.10849883243609203  1.0000
  C   C6        1.0  0.015689397406114445  0.8505132254736888  0.39150116761324  1.0000
  C   C7        1.0  0.5156893973114437  0.6494867751664974  0.891501167662572  1.0000
  C   C8        1.0  0.9843106030332658  0.1494867732678357  0.6084988324883488  1.0000
  C   C9        1.0  0.3469324318870889  0.53670114648992  0.21222553423529583  1.0000
  C   C10       1.0  0.15306756841828836  0.03670114711915771  0.2877744653049003  1.0000
  C   C11       1.0  0.6530675683236176  0.463298854779504  0.7877744653542323  1.0000
  C   C12       1.0  0.8469324317924181  0.9632988541502663  0.7122255342846279  1.0000
  C   C13       1.0  0.3810719529705785  0.41254026582325226  0.28578051328735543  1.0000
  C   C14       1.0  0.11892804693475062  0.9125402651940144  0.21421948676197655  1.0000
  C   C15       1.0  0.6189280474688016  0.5874597354461716  0.7142194868142332  1.0000
  C   C16       1.0  0.8810719528759077  0.08745973354750994  0.7857805133366875  1.0000
  C   C17       1.0  0.5656943720889621  0.43423643347957114  0.10185281411591973  1.0000
  C   C18       1.0  0.934305628410932  0.9342364328503333  0.39814718581292247  1.0000
  C   C19       1.0  0.434305628350418  0.5657635652619533  0.8981471859856689  1.0000
  C   C20       1.0  0.06569437202844834  0.0657635658911911  0.6018528142886663  1.0000
  C   C21       1.0  0.5265771259105356  0.6424118341334748  0.2167155654277709  1.0000
  C   C22       1.0  0.9734228739606366  0.14241183476271255  0.2832844344981466  1.0000
  C   C23       1.0  0.4734228739001228  0.35758816460804965  0.7832844346708931  1.0000
  C   C24       1.0  0.026577125850021626  0.8575881639788119  0.7167155656005173  1.0000
  C   C25       1.0  0.6272475496488306  0.623590118248605  0.153349083363554  1.0000
  C   C26       1.0  0.8727524502223416  0.12359011634994331  0.3466509165623636  1.0000
  C   C27       1.0  0.3727524501618277  0.3764098830208189  0.8466509167351101  1.0000
  C   C28       1.0  0.12724754958831672  0.8764098823915811  0.6533490835363005  1.0000
  C   C29       1.0  0.6083434880073199  0.7281924205490683  0.2106946775361089  1.0000
  C   C30       1.0  0.8916565118638525  0.22819242117830607  0.28930532238980866  1.0000
  C   C31       1.0  0.39165651180333855  0.2718075781924561  0.7893053225625553  1.0000
  C   C32       1.0  0.10834348771813211  0.7718075775632184  0.7106946771967949  1.0000
  C   C33       1.0  0.4595036878191208  0.42530264705070664  0.5041131486951997  1.0000
  C   C34       1.0  0.04049631255974548  0.9253026464214689  0.9958868515791355  1.0000
  C   C35       1.0  0.5404963126202593  0.5746973516908177  0.4958868514063889  1.0000
  C   C36       1.0  0.9595036878796347  0.07469735232005556  0.004113148522453321  1.0000
  C   C37       1.0  0.4619953676445478  0.260850122264488  0.5643361288764529  1.0000
  C   C38       1.0  0.03800463273431855  0.7608501216352502  0.9356638713978824  1.0000
  C   C39       1.0  0.5380046327948325  0.7391498790049359  0.4356638712251358  1.0000
  C   C40       1.0  0.9619953670763398  0.23914987963417367  0.06433612870078174  1.0000
  C   C41       1.0  0.3831070434204024  0.1396025396009008  0.5704029040009079  1.0000
  C   C42       1.0  0.11689295672979007  0.6396025389716631  0.9295970957613666  1.0000
  C   C43       1.0  0.6168929570189778  0.8603974616685232  0.42959709610068075  1.0000
  C   C44       1.0  0.8831070428521944  0.36039746229776093  0.07040290382523677  1.0000
  C   C45       1.0  0.30580109509511477  0.3347773879200679  0.4568704264015812  1.0000
  C   C46       1.0  0.1941989054389363  0.8347773872908301  0.04312957365067551  1.0000
  C   C47       1.0  0.6941989053442654  0.6652226133493561  0.5431295737000076  1.0000
  C   C48       1.0  0.8058010950004438  0.16522261145069433  0.9568704264509131  1.0000
  C   C49       1.0  0.3027321231132537  0.18273272162369064  0.5162980007312108  1.0000
  C   C50       1.0  0.19726787703693882  0.6827327209944528  0.9837019990310639  1.0000
  C   C51       1.0  0.6972678766974048  0.8172672796457332  0.48370199936745334  1.0000
  C   C52       1.0  0.8027321234024414  0.3172672777470716  0.016298001070524728  1.0000
  N   N1        1.0  0.38160810356605523  0.44996923565512914  0.4505123851665561  1.0000
  N   N2        1.0  0.11839189633927391  0.9499692350258913  0.04948761488277595  1.0000
  N   N3        1.0  0.6183918962446031  0.5500307656142948  0.549487614932108  1.0000
  N   N4        1.0  0.8816081034713844  0.05003076624353259  0.9505123852158881  1.0000
  O   O1        1.0  0.3816682370356491  0.35797157870905916  0.16745770679822128  1.0000
  O   O2        1.0  0.11833176286968004  0.8579715780798213  0.3325422932511108  1.0000
  O   O3        1.0  0.6183317627750092  0.6420284200324653  0.8325422933004427  1.0000
  O   O4        1.0  0.8816682369409783  0.14202842066170304  0.6674577068475532  1.0000
  O   O5        1.0  0.3359289324086487  0.5605356314714095  0.320919377591571  1.0000
  O   O6        1.0  0.16407106749668046  0.060535629572747815  0.17908062245776096  1.0000
  O   O7        1.0  0.664071067173336  0.4394643697980144  0.6790806219950325  1.0000
  O   O8        1.0  0.8359289329426998  0.9394643691687766  0.8209193776438277  1.0000
  O   O9        1.0  0.44234612523845235  0.20831637402537384  0.3087161084290838  1.0000
  O   O10       1.0  0.057653874666876916  0.7083163733961361  0.19128389162024825  1.0000
  O   O11       1.0  0.557653874572206  0.7916836272440501  0.6912838916695803  1.0000
  O   O12       1.0  0.9423461257725031  0.2916836253453884  0.8087161084813405  1.0000
  Cl  Cl1       1.0  0.40524364295660686  0.13420384872696647  0.04278189160172056  1.0000
  Cl  Cl2       1.0  0.0947563569487223  0.6342038480977288  0.4572181084476115  1.0000
  Cl  Cl3       1.0  0.5947563568540515  0.8657961525424575  0.9572181084969436  1.0000
  Cl  Cl4       1.0  0.9052436428619361  0.3657961531716953  0.5427818916510526  1.0000
  Cl  Cl5       1.0  0.7272164788990114  0.7458111975379125  0.14406990457373225  1.0000
  Cl  Cl6       1.0  0.7727835216008827  0.24581119816715027  0.35593009535510994  1.0000
  Cl  Cl7       1.0  0.27278352154036883  0.254188801203612  0.8559300955278566  1.0000
  Cl  Cl8       1.0  0.22721647883849752  0.7541888005743741  0.6440699047464787  1.0000
