data_image0
_chemical_formula_structural       H24C28N2O6Cl4
_chemical_formula_sum              "H24 C28 N2 O6 Cl4"
_cell_length_a       7.241194872857483
_cell_length_b       7.273024538945635
_cell_length_c       13.897526903019113
_cell_angle_alpha    93.46677205701357
_cell_angle_beta     89.67373318660782
_cell_angle_gamma    114.46173254632458

_space_group_name_H-M_alt    "P 1"
_space_group_IT_number       1

loop_
  _space_group_symop_operation_xyz
  'x, y, z'

loop_
  _atom_site_type_symbol
  _atom_site_label
  _atom_site_symmetry_multiplicity
  _atom_site_fract_x
  _atom_site_fract_y
  _atom_site_fract_z
  _atom_site_occupancy
  H   H1        1.0  0.440366656050235  0.8805437539458605  0.1367439992528471  1.0000
  H   H2        1.0  0.5596333427111694  0.11945624552835317  0.8632560006632656  1.0000
  H   H3        1.0  0.8471773465901801  0.35574118358167794  0.20226946334224594  1.0000
  H   H4        1.0  0.15282265355031188  0.6442588158879251  0.7977305365696593  1.0000
  H   H5        1.0  0.7046283188480277  0.3545313940558014  0.30659549605033704  1.0000
  H   H6        1.0  0.2953716805452636  0.6454686069288209  0.693404503864901  1.0000
  H   H7        1.0  0.26514426326449025  0.2595351096110183  0.5979804903912821  1.0000
  H   H8        1.0  0.7348557368760017  0.7404648898585849  0.4020195095206232  1.0000
  H   H9        1.0  0.636621875770987  0.1648599939761181  0.6105722385911877  1.0000
  H   H10       1.0  0.3633781250013917  0.8351400070038935  0.3894277613198431  1.0000
  H   H11       1.0  0.6301434851767679  0.20200578967618166  0.4367231201937518  1.0000
  H   H12       1.0  0.3698565149637241  0.7979942097934216  0.5632768797181534  1.0000
  H   H13       1.0  0.3354952541317222  0.5839093615377136  0.2387391961838624  1.0000
  H   H14       1.0  0.6645047460087697  0.4160906379318897  0.7612608037280427  1.0000
  H   H15       1.0  0.2025569337597445  0.21657954872343946  0.18619756147200253  1.0000
  H   H16       1.0  0.7974430664218726  0.7834204508446051  0.813802439160925  1.0000
  H   H17       1.0  0.21267398454758743  0.386523449246805  0.8926650716826431  1.0000
  H   H18       1.0  0.7873260155929045  0.6134765502227982  0.10733492822926213  1.0000
  H   H19       1.0  0.346056632142039  0.7470340072949971  0.9576833084320694  1.0000
  H   H20       1.0  0.6539433679984529  0.25296599217460597  0.04231669147983581  1.0000
  H   H21       1.0  0.1802535424673847  0.9718776088628049  0.04394928591331004  1.0000
  H   H22       1.0  0.8197464576731072  0.028122390606798157  0.9560507139985951  1.0000
  H   H23       1.0  0.1658357537809373  0.03925180929561909  0.9244900248173781  1.0000
  H   H24       1.0  0.8341642463595546  0.960748190173984  0.07550997509452721  1.0000
  C   C1        1.0  0.6410777678591225  0.057378328071804915  0.23931561496813217  1.0000
  C   C2        1.0  0.3589222309022818  0.9426216714024088  0.7606843849479804  1.0000
  C   C3        1.0  0.787077665803372  0.2759739223431  0.26761507004110585  1.0000
  C   C4        1.0  0.21292233433711985  0.7240260771265031  0.7323849298707993  1.0000
  C   C5        1.0  0.9464728977698306  0.26201889785337323  0.4168195739797088  1.0000
  C   C6        1.0  0.05352710241178644  0.7379811017146711  0.5831804266532186  1.0000
  C   C7        1.0  0.12452624063961681  0.27942890707875245  0.46451302428685826  1.0000
  C   C8        1.0  0.8754737581217875  0.7205710923954611  0.5354869756292543  1.0000
  C   C9        1.0  0.1284391913173206  0.2527365881103541  0.5627374041702381  1.0000
  C   C10       1.0  0.8715608088231713  0.7472634113592489  0.4372625957416671  1.0000
  C   C11       1.0  0.9514423843233424  0.21190358671968704  0.614394071992511  1.0000
  C   C12       1.0  0.048557615817149596  0.7880964127499162  0.3856059279193942  1.0000
  C   C13       1.0  0.7735850676508986  0.19581858774941385  0.5694182201145501  1.0000
  C   C14       1.0  0.22641493312148003  0.8041814132305978  0.43058177979648055  1.0000
  C   C15       1.0  0.7715560878590123  0.21910415867016933  0.4707296902998396  1.0000
  C   C16       1.0  0.2284439122814795  0.7808958407994337  0.5292703096120657  1.0000
  C   C17       1.0  0.30369604433553105  0.5318019328050849  0.16300897815324086  1.0000
  C   C18       1.0  0.6963039564368476  0.4681980681749267  0.8369910217577898  1.0000
  C   C19       1.0  0.23066990325456507  0.3281794740779319  0.13270172507650563  1.0000
  C   C20       1.0  0.7693300975178137  0.6718205269020798  0.867298274834525  1.0000
  C   C21       1.0  0.1965847295046054  0.2705043488664169  0.034124671342433674  1.0000
  C   C22       1.0  0.8034152712677732  0.7294956521135947  0.9658753285685969  1.0000
  C   C23       1.0  0.2353593282187791  0.4231722131970937  0.9701161725749146  1.0000
  C   C24       1.0  0.7646406725535996  0.5768277877829179  0.029883827336116126  1.0000
  C   C25       1.0  0.30873346031608984  0.6237999201454426  0.00571239871734458  1.0000
  C   C26       1.0  0.691266539824402  0.3762000793241605  0.9942876011945607  1.0000
  C   C27       1.0  0.1171318042773525  0.05182053575128424  0.9986930742389891  1.0000
  C   C28       1.0  0.8828681964950261  0.9481794652287273  0.0013069256720414993  1.0000
  N   N1        1.0  0.3426150789749278  0.6766206470326461  0.10046599712511348  1.0000
  N   N2        1.0  0.6573849204183634  0.3233793539519761  0.8995340027901246  1.0000
  O   O1        1.0  0.5324746825287258  0.044193292400029435  0.16106248044362734  1.0000
  O   O2        1.0  0.4675253182436528  0.9558067085799822  0.8389375194674034  1.0000
  O   O3        1.0  0.6306303169225269  0.9135798337703905  0.2849720848794186  1.0000
  O   O4        1.0  0.36936968183887753  0.08642016570382313  0.7150279150366939  1.0000
  O   O5        1.0  0.9606715359934621  0.2919629266352641  0.32071492529465956  1.0000
  O   O6        1.0  0.039328464147030014  0.7080370728343393  0.6792850746172456  1.0000
  Cl  Cl1       1.0  0.34348825078168344  0.3369514507319824  0.3990722892578632  1.0000
  Cl  Cl2       1.0  0.6565117493999337  0.6630485488360621  0.6009277113750643  1.0000
  Cl  Cl3       1.0  0.9529127662250566  0.18002136468719226  0.7373275530774691  1.0000
  Cl  Cl4       1.0  0.047087232536347945  0.8199786347870216  0.26267244683864355  1.0000
