data_image0
_chemical_formula_structural       H36C52N8Cl4
_chemical_formula_sum              "H36 C52 N8 Cl4"
_cell_length_a       9.011711506800014
_cell_length_b       9.789605458711174
_cell_length_c       12.951893947837224
_cell_angle_alpha    103.08737096043102
_cell_angle_beta     93.34899084138827
_cell_angle_gamma    113.2060950983011

_space_group_name_H-M_alt    "P 1"
_space_group_IT_number       1

loop_
  _space_group_symop_operation_xyz
  'x, y, z'

loop_
  _atom_site_type_symbol
  _atom_site_label
  _atom_site_symmetry_multiplicity
  _atom_site_fract_x
  _atom_site_fract_y
  _atom_site_fract_z
  _atom_site_occupancy
  H   H1        1.0  0.3366468898726256  0.3145633959909262  0.1204741819070713  1.0000
  H   H2        1.0  0.6633531105300764  0.6854366047980753  0.8795258181004837  1.0000
  H   H3        1.0  0.6067342989101447  0.6649999139605519  0.3698071378162912  1.0000
  H   H4        1.0  0.3932657010242731  0.3350000857134576  0.6301928621817929  1.0000
  H   H5        1.0  0.16913908452804818  0.6209836213502401  0.008671303185115532  1.0000
  H   H6        1.0  0.8308609154063696  0.3790163783237693  0.9913286968129685  1.0000
  H   H7        1.0  0.45706267855970906  0.7992274404636864  0.46832340094753283  1.0000
  H   H8        1.0  0.5429373218429928  0.200772560325315  0.5316765990600221  1.0000
  H   H9        1.0  0.11689286025575181  0.3640706492505093  0.03353242884075743  1.0000
  H   H10       1.0  0.8831071396786659  0.6359293504235001  0.9664675711573266  1.0000
  H   H11       1.0  0.18807179772129712  0.6549880279017669  0.5165540886176843  1.0000
  H   H12       1.0  0.811928201098621  0.345011971761388  0.4834459113775914  1.0000
  H   H13       1.0  0.4495571766769576  0.835067481133887  0.06127307425501584  1.0000
  H   H14       1.0  0.5504428232574603  0.16493251854012253  0.9387269257430683  1.0000
  H   H15       1.0  0.06440813351758282  0.3661136345662481  0.469438632857141  1.0000
  H   H16       1.0  0.9355918668851192  0.6338863662227534  0.530561367150414  1.0000
  H   H17       1.0  0.8409068098672071  0.12950005387797442  0.24035400524541323  1.0000
  H   H18       1.0  0.15909319006721062  0.870499945796035  0.7596459947526708  1.0000
  H   H19       1.0  0.0378874068098223  0.8614127730210177  0.2113430231692863  1.0000
  H   H20       1.0  0.9621125931245955  0.13858722665299172  0.7886569768287978  1.0000
  H   H21       1.0  0.12379865036527389  0.653336451730318  0.23219393290528575  1.0000
  H   H22       1.0  0.876201349569144  0.3466635479436915  0.7678060670927983  1.0000
  H   H23       1.0  0.570820833918213  0.9722629897553193  0.26326260808226754  1.0000
  H   H24       1.0  0.42917916601620465  0.027737009918689957  0.7367373919158166  1.0000
  H   H25       1.0  0.05216929693960385  0.3873386604199222  0.2339065183947266  1.0000
  H   H26       1.0  0.9478307034630982  0.6126613403690793  0.7660934816128284  1.0000
  H   H27       1.0  0.293687964721569  0.9438924215073271  0.3042195336922443  1.0000
  H   H28       1.0  0.706312035681133  0.05610757928167434  0.6957804663153107  1.0000
  H   H29       1.0  0.10466433348447382  0.04495130718847886  0.9112143039208884  1.0000
  H   H30       1.0  0.8953356664499441  0.9550486924855305  0.0887856960771955  1.0000
  H   H31       1.0  0.9689541178767606  0.8524273113319297  0.9109218581759112  1.0000
  H   H32       1.0  0.03104588205765734  0.1475726883420798  0.08907814182217291  1.0000
  H   H33       1.0  0.8597512156148834  0.841941070090841  0.4449443476184562  1.0000
  H   H34       1.0  0.14024878478781846  0.15805893069816046  0.5550556523890988  1.0000
  H   H35       1.0  0.9764807834508281  0.9865305819482679  0.37946198587263297  1.0000
  H   H36       1.0  0.02351921695187384  0.01346941884073366  0.620538014134922  1.0000
  C   C1        1.0  0.5139688302800086  0.5536008332847859  0.1491668411066804  1.0000
  C   C2        1.0  0.48603117012269326  0.4463991675042155  0.8508331589008745  1.0000
  C   C3        1.0  0.6055950898729965  0.3342037251600074  0.26226018189523526  1.0000
  C   C4        1.0  0.39440491006142125  0.6657962745140019  0.7377398181028486  1.0000
  C   C5        1.0  0.3601306491090698  0.42969025281000167  0.11360431281217676  1.0000
  C   C6        1.0  0.639869350825348  0.5703097468640077  0.8863956871859073  1.0000
  C   C7        1.0  0.48641264865264944  0.5980470780808096  0.38587215547509124  1.0000
  C   C8        1.0  0.5135873517500525  0.4019529227081919  0.6141278445324637  1.0000
  C   C9        1.0  0.4130198586459437  0.436568748231587  0.35500921387497764  1.0000
  C   C10       1.0  0.5869801417567584  0.5634312525574146  0.6449907861325773  1.0000
  C   C11       1.0  0.5477385972391771  0.6996812034475008  0.12957723002246146  1.0000
  C   C12       1.0  0.4522614026952407  0.30031879622650853  0.8704227699756225  1.0000
  C   C13       1.0  0.7112863045242905  0.46203750785486997  0.2292908036027105  1.0000
  C   C14       1.0  0.2887136958784115  0.5379624929341313  0.7707091964048445  1.0000
  C   C15       1.0  0.3463041611316101  0.18159238071439732  0.31433287081017663  1.0000
  C   C16       1.0  0.6536958388028076  0.818407618959612  0.6856671291879073  1.0000
  C   C17       1.0  0.26805547561545523  0.6037893857581579  0.04801761961982282  1.0000
  C   C18       1.0  0.7319445247872468  0.39621061503084354  0.9519823803877321  1.0000
  C   C19       1.0  0.26140350078708124  0.35252523698929267  0.3860760735782723  1.0000
  C   C20       1.0  0.7385964991473365  0.6474747626847167  0.6139239264198117  1.0000
  C   C21       1.0  0.40140959854444064  0.6734181998575799  0.44286441251023867  1.0000
  C   C22       1.0  0.5985904018582614  0.32658180093142153  0.5571355874973164  1.0000
  C   C23       1.0  0.23802065599591254  0.45798888089779755  0.06385014877646462  1.0000
  C   C24       1.0  0.7619793439385052  0.5420111187762119  0.9361498512216194  1.0000
  C   C25       1.0  0.7810804612185905  0.7139780257863597  0.19378715494218762  1.0000
  C   C26       1.0  0.21891953918411153  0.2860219750026417  0.8062128450653673  1.0000
  C   C27       1.0  0.2493531045799471  0.5911268463384478  0.47123888173993306  1.0000
  C   C28       1.0  0.7506468953544706  0.40887315333556157  0.528761118258151  1.0000
  C   C29       1.0  0.8781469230774885  0.4871578431820397  0.22976215524166718  1.0000
  C   C30       1.0  0.12185307685692923  0.5128421564919696  0.7702378447564168  1.0000
  C   C31       1.0  0.42288309317860945  0.7248975578569895  0.07872501812502362  1.0000
  C   C32       1.0  0.5771169067558084  0.27510244181702  0.9212749818730603  1.0000
  C   C33       1.0  0.17912295083882668  0.4309075929259457  0.444837890575605  1.0000
  C   C34       1.0  0.8208770490955912  0.5690924067480637  0.555162109422479  1.0000
  C   C35       1.0  0.8100631797416292  0.22692420424488569  0.24192762763313613  1.0000
  C   C36       1.0  0.1899368206610727  0.7730757965441157  0.7580723723744188  1.0000
  C   C37       1.0  0.6501495660555102  0.208857563308797  0.25745418137055304  1.0000
  C   C38       1.0  0.3498504338789075  0.7911424363652123  0.742545818627531  1.0000
  C   C39       1.0  0.9500252794124975  0.7482820323462749  0.21377901604286084  1.0000
  C   C40       1.0  0.04997472052192037  0.25171796732773455  0.7862209839552232  1.0000
  C   C41       1.0  0.9957391107748393  0.6344255277833285  0.22507518533476867  1.0000
  C   C42       1.0  0.00426088962786258  0.36557447300567303  0.7749248146727863  1.0000
  C   C43       1.0  0.5339758338615865  0.06687227399677931  0.2709794916651226  1.0000
  C   C44       1.0  0.46602416607283126  0.93312772567723  0.7290205083329615  1.0000
  C   C45       1.0  0.9247115722210661  0.366991092208209  0.2362070564693096  1.0000
  C   C46       1.0  0.07528842771335169  0.6330089074658003  0.7637929435287745  1.0000
  C   C47       1.0  0.3827862521383103  0.05061239115997461  0.2928836356366657  1.0000
  C   C48       1.0  0.6172137482643918  0.949387609629027  0.7071163643708893  1.0000
  C   C49       1.0  0.046367664596037896  0.9690375134666455  0.9614860163717224  1.0000
  C   C50       1.0  0.9536323358066642  0.030962487322355927  0.038513983635832666  1.0000
  C   C51       1.0  0.9308885784575053  0.9648420182567985  0.45315198168277643  1.0000
  C   C52       1.0  0.06911142147691268  0.03515798141721094  0.5468480183153076  1.0000
  N   N1        1.0  0.46316772958843067  0.3237244746367078  0.30383354040835037  1.0000
  N   N2        1.0  0.536832270345987  0.6762755250373016  0.6961664595897338  1.0000
  N   N3        1.0  0.6647727444300272  0.5669479866520019  0.1953530242759801  1.0000
  N   N4        1.0  0.3352272559726749  0.4330520141369996  0.8046469757315748  1.0000
  N   N5        1.0  0.7120528270184661  0.7966877470170735  0.15924541901429604  1.0000
  N   N6        1.0  0.2879471729159518  0.20331225265693603  0.8407545809837881  1.0000
  N   N7        1.0  0.22216554699949617  0.19640286528445194  0.35856880755520726  1.0000
  N   N8        1.0  0.777834451820422  0.8035971343787031  0.6414311924400684  1.0000
  Cl  Cl1       1.0  0.2116521398670664  0.9574866452021459  0.03817301225812634  1.0000
  Cl  Cl2       1.0  0.7883478605356357  0.04251335558685551  0.9618269877494288  1.0000
  Cl  Cl3       1.0  0.7944494228515097  0.05723357015314005  0.4783980698429034  1.0000
  Cl  Cl4       1.0  0.20555057708290825  0.9427664295208694  0.5216019301551805  1.0000
