data_image0
_chemical_formula_structural       H104C92N8O20S8
_chemical_formula_sum              "H104 C92 N8 O20 S8"
_cell_length_a       24.190975925880885
_cell_length_b       10.691274582025198
_cell_length_c       9.222884946567724
_cell_angle_alpha    90.0
_cell_angle_beta     105.0492865103057
_cell_angle_gamma    90.0

_space_group_name_H-M_alt    "P 1"
_space_group_IT_number       1

loop_
  _space_group_symop_operation_xyz
  'x, y, z'

loop_
  _atom_site_type_symbol
  _atom_site_label
  _atom_site_symmetry_multiplicity
  _atom_site_fract_x
  _atom_site_fract_y
  _atom_site_fract_z
  _atom_site_occupancy
  H   H1        1.0  0.2924885446415507  0.8901542942317043  0.34253455034764596  1.0000
  H   H2        1.0  0.7924885443463958  0.3901542943264171  0.34253455059257465  1.0000
  H   H3        1.0  0.29248854470448205  0.10984570557887034  0.842534550548896  1.0000
  H   H4        1.0  0.7924885444082926  0.6098457054841577  0.842534549708864  1.0000
  H   H5        1.0  0.7075114553210249  0.10984570557887034  0.6574654497486563  1.0000
  H   H6        1.0  0.2075114556161797  0.6098457054841577  0.6574654495037275  1.0000
  H   H7        1.0  0.7075114556861507  0.8901542942317043  0.15746544983631142  1.0000
  H   H8        1.0  0.20751145555324843  0.3901542943264171  0.15746544930247744  1.0000
  H   H9        1.0  0.19587742850032927  0.560032965579846  0.38918762555046166  1.0000
  H   H10       1.0  0.6958774286321973  0.060032965674558646  0.38918762499933496  1.0000
  H   H11       1.0  0.19587742856222617  0.43996703423072875  0.889187624666751  1.0000
  H   H12       1.0  0.6958774286951285  0.9399670341360161  0.8891876252005851  1.0000
  H   H13       1.0  0.8041225714622461  0.43996703423072875  0.6108123745458405  1.0000
  H   H14       1.0  0.30412257133037834  0.9399670341360161  0.6108123750969674  1.0000
  H   H15       1.0  0.8041225713993149  0.560032965579846  0.11081237434459026  1.0000
  H   H16       1.0  0.3041225712674471  0.060032965674558646  0.11081237489571713  1.0000
  H   H17       1.0  0.07906070354067952  0.75260748176162  0.19135280922172274  1.0000
  H   H18       1.0  0.5790607032444901  0.25260748185633264  0.1913528083816907  1.0000
  H   H19       1.0  0.07906070360361084  0.24739251898429693  0.691352809422973  1.0000
  H   H20       1.0  0.5790607033074214  0.7473925188895844  0.6913528085829408  1.0000
  H   H21       1.0  0.9209392964218959  0.24739251898429693  0.8086471908745795  1.0000
  H   H22       1.0  0.42093929671808533  0.7473925188895844  0.8086471917146114  1.0000
  H   H23       1.0  0.920939296787022  0.75260748176162  0.30864719096223464  1.0000
  H   H24       1.0  0.42093929665515406  0.25260748185633264  0.3086471915133614  1.0000
  H   H25       1.0  0.034984714897713626  0.9576148345504977  0.20803441024324493  1.0000
  H   H26       1.0  0.5349847150295814  0.45761483464521024  0.2080344096921181  1.0000
  H   H27       1.0  0.03498471496064493  0.04238516526007713  0.708034410444495  1.0000
  H   H28       1.0  0.5349847146644555  0.5423851651653645  0.7080344096044631  1.0000
  H   H29       1.0  0.9650152850648618  0.04238516526007713  0.7919655898530573  1.0000
  H   H30       1.0  0.46501528536105124  0.5423851651653645  0.7919655906930894  1.0000
  H   H31       1.0  0.9650152850019305  0.9576148345504977  0.2919655896518071  1.0000
  H   H32       1.0  0.46501528529812  0.45761483464521024  0.2919655904918392  1.0000
  H   H33       1.0  0.15217136607368484  0.13095532803487211  0.9881269880966508  1.0000
  H   H34       1.0  0.6521713662065871  0.6309553279401595  0.9881269886304846  1.0000
  H   H35       1.0  0.1521713660107535  0.8690446717757027  0.48812698789540054  1.0000
  H   H36       1.0  0.6521713661436558  0.3690446718704153  0.4881269884292345  1.0000
  H   H37       1.0  0.8478286338888907  0.8690446717757027  0.011873011999651463  1.0000
  H   H38       1.0  0.3478286337559884  0.3690446718704153  0.011873011465817434  1.0000
  H   H39       1.0  0.8478286339518218  0.13095532803487211  0.5118730122009015  1.0000
  H   H40       1.0  0.34782863381891965  0.6309553279401595  0.5118730116670676  1.0000
  H   H41       1.0  0.19685143654580695  0.9271520111049597  0.9704969278201957  1.0000
  H   H42       1.0  0.6968514366787092  0.4271520111996724  0.9704969283540298  1.0000
  H   H43       1.0  0.1968514364839101  0.07284798870561497  0.47049692870390636  1.0000
  H   H44       1.0  0.6968514366157779  0.5728479886109024  0.4704969281527796  1.0000
  H   H45       1.0  0.8031485634157342  0.07284798870561497  0.02950307119114566  1.0000
  H   H46       1.0  0.30314856328386625  0.5728479886109024  0.02950307174227245  1.0000
  H   H47       1.0  0.8031485634786653  0.9271520111049597  0.5295030713923958  1.0000
  H   H48       1.0  0.3031485633467976  0.4271520111996724  0.5295030719435225  1.0000
  H   H49       1.0  0.028909197342484597  0.17862571439431196  0.16568269109700767  1.0000
  H   H50       1.0  0.5289091974753869  0.6786257152349415  0.16568269163084162  1.0000
  H   H51       1.0  0.028909197405415903  0.8213742854162627  0.6656826912982577  1.0000
  H   H52       1.0  0.5289091975383182  0.3213742855109754  0.6656826918320918  1.0000
  H   H53       1.0  0.971090802620091  0.8213742854162627  0.8343173089992945  1.0000
  H   H54       1.0  0.47109080248718865  0.3213742855109754  0.8343173084654605  1.0000
  H   H55       1.0  0.9710908025571596  0.17862571439431196  0.33431730879804433  1.0000
  H   H56       1.0  0.47109080242425727  0.6786257152349415  0.33431730826421036  1.0000
  H   H57       1.0  0.047855591129423156  0.22825730751531534  0.0006063734670819937  1.0000
  H   H58       1.0  0.5478555908342682  0.7282573074206028  0.0006063737120106395  1.0000
  H   H59       1.0  0.04785559076429723  0.7717426922952594  0.5006063733794268  1.0000
  H   H60       1.0  0.5478555908971995  0.271742692389972  0.5006063739132607  1.0000
  H   H61       1.0  0.9521444088331523  0.7717426922952594  0.9993936266292203  1.0000
  H   H62       1.0  0.45214440912830733  0.271742692389972  0.9993936263842914  1.0000
  H   H63       1.0  0.9521444091982784  0.22825730751531534  0.49939362671687537  1.0000
  H   H64       1.0  0.452144409065376  0.7282573074206028  0.4993936261830414  1.0000
  H   H65       1.0  0.09677011643028904  0.249264275232485  0.1788910811788073  1.0000
  H   H66       1.0  0.5967701165631913  0.7492642751377724  0.17889108171264126  1.0000
  H   H67       1.0  0.09677011649322037  0.7507357245780897  0.6788910813800575  1.0000
  H   H68       1.0  0.5967701166261227  0.25073572467280236  0.6788910819138916  1.0000
  H   H69       1.0  0.903229883531252  0.7507357245780897  0.821108917832534  1.0000
  H   H70       1.0  0.4032298833993842  0.25073572467280236  0.821108918383661  1.0000
  H   H71       1.0  0.9032298834693551  0.249264275232485  0.3211089187162447  1.0000
  H   H72       1.0  0.4032298837645101  0.7492642751377724  0.32110891847131606  1.0000
  H   H73       1.0  0.2653312238528693  0.7443557069780666  0.14858427084934944  1.0000
  H   H74       1.0  0.7653312235577144  0.2443557070727793  0.14858427109427813  1.0000
  H   H75       1.0  0.26533122348774335  0.25564429283250806  0.6485842707616943  1.0000
  H   H76       1.0  0.7653312236206455  0.7556442927377955  0.6485842712955283  1.0000
  H   H77       1.0  0.7346687765377634  0.25564429283250806  0.8514157295358581  1.0000
  H   H78       1.0  0.23466877640486122  0.7556442927377955  0.8514157290020241  1.0000
  H   H79       1.0  0.7346687764748321  0.7443557069780666  0.3514157293346079  1.0000
  H   H80       1.0  0.23466877634192987  0.2443557070727793  0.35141572880077393  1.0000
  H   H81       1.0  0.9177940452013201  0.5543240316700747  0.08893597138440232  1.0000
  H   H82       1.0  0.41779404506841783  0.05432403176478731  0.08893597085056844  1.0000
  H   H83       1.0  0.9177940452642516  0.4456759681405001  0.5889359715856527  1.0000
  H   H84       1.0  0.41779404513134916  0.9456759680457874  0.5889359710518186  1.0000
  H   H85       1.0  0.08220595476125532  0.4456759681405001  0.9110640287118998  1.0000
  H   H86       1.0  0.5822059548941576  0.9456759680457874  0.9110640292457337  1.0000
  H   H87       1.0  0.08220595469832402  0.5543240316700747  0.4110640285106496  1.0000
  H   H88       1.0  0.5822059548312263  0.05432403176478731  0.41106402904448364  1.0000
  H   H89       1.0  0.9314479778272811  0.4334163054600218  0.22678749372656368  1.0000
  H   H90       1.0  0.43144797812243596  0.9334163053653092  0.22678749348163504  1.0000
  H   H91       1.0  0.9314479778902124  0.5665836952858951  0.7267874939278139  1.0000
  H   H92       1.0  0.43144797775731003  0.06658369538060774  0.7267874933939799  1.0000
  H   H93       1.0  0.0685520221352945  0.5665836952858951  0.7732125063697385  1.0000
  H   H94       1.0  0.5685520222671623  0.06658369538060774  0.7732125058186117  1.0000
  H   H95       1.0  0.0685520220723632  0.4334163054600218  0.2732125061684883  1.0000
  H   H96       1.0  0.5685520222052655  0.9334163053653092  0.2732125067023223  1.0000
  H   H97       1.0  0.9655683197519491  0.428250781969226  0.0799356673922101  1.0000
  H   H98       1.0  0.4655683196200813  0.9282507818745133  0.07993566794333695  1.0000
  H   H99       1.0  0.9655683198148806  0.5717492178413488  0.5799356675934604  1.0000
  H   H100      1.0  0.46556831968301254  0.07174921793606144  0.5799356681445872  1.0000
  H   H101      1.0  0.03443168020959194  0.5717492178413488  0.9200643316191313  1.0000
  H   H102      1.0  0.5344316803424942  0.07174921793606144  0.9200643321529652  1.0000
  H   H103      1.0  0.034431680575752285  0.428250781969226  0.42006433279174715  1.0000
  H   H104      1.0  0.5344316802795629  0.9282507818745133  0.42006433195171505  1.0000
  C   C1        1.0  0.24286833608338057  0.7220658819275853  0.34843536542574555  1.0000
  C   C2        1.0  0.7428683362152484  0.22206588202229793  0.3484353648746187  1.0000
  C   C3        1.0  0.2428683361463119  0.27793411788298944  0.8484353656269957  1.0000
  C   C4        1.0  0.7428683362781797  0.7779341177882768  0.8484353650758689  1.0000
  C   C5        1.0  0.757131663879195  0.27793411788298944  0.6515646346705566  1.0000
  C   C6        1.0  0.2571316637473271  0.7779341177882768  0.6515646352216835  1.0000
  C   C7        1.0  0.7571316638162636  0.7220658819275853  0.15156463446930654  1.0000
  C   C8        1.0  0.2571316636843958  0.22206588202229793  0.15156463502043327  1.0000
  C   C9        1.0  0.27387846799594734  0.8283887802199117  0.4112662651155685  1.0000
  C   C10       1.0  0.7738784681288495  0.3283887803146244  0.4112662656494025  1.0000
  C   C11       1.0  0.27387846805887867  0.171611219590663  0.9112662653168189  1.0000
  C   C12       1.0  0.7738784681907465  0.6716112194959504  0.9112662647656918  1.0000
  C   C13       1.0  0.7261215319666282  0.171611219590663  0.5887337349807336  1.0000
  C   C14       1.0  0.22612153183372588  0.6716112194959504  0.5887337344468997  1.0000
  C   C15       1.0  0.7261215319036969  0.8283887802199117  0.08873373477948347  1.0000
  C   C16       1.0  0.22612153219988623  0.3283887803146244  0.08873373561951554  1.0000
  C   C17       1.0  0.21889183175366062  0.6437957436405292  0.43752804497101605  1.0000
  C   C18       1.0  0.7188918318855284  0.14379574279989965  0.4375280444198893  1.0000
  C   C19       1.0  0.21889183181659191  0.3562042571053877  0.9375280451722662  1.0000
  C   C20       1.0  0.7188918319484596  0.856204257010675  0.9375280446211394  1.0000
  C   C21       1.0  0.7811081682089149  0.3562042571053877  0.5624719551252861  1.0000
  C   C22       1.0  0.28110816807601263  0.856204257010675  0.5624719545914522  1.0000
  C   C23       1.0  0.7811081681459836  0.6437957436405292  0.062471954924035955  1.0000
  C   C24       1.0  0.28110816801411576  0.14379574279989965  0.06247195547516277  1.0000
  C   C25       1.0  0.140117960554233  0.8267535243048318  0.07862553384140532  1.0000
  C   C26       1.0  0.6401179602590781  0.32675352346420233  0.07862553408633398  1.0000
  C   C27       1.0  0.1401179606171643  0.17324647644108507  0.5786255340426555  1.0000
  C   C28       1.0  0.6401179603220093  0.6732464763463725  0.5786255342875841  1.0000
  C   C29       1.0  0.8598820394083425  0.17324647644108507  0.9213744662548968  1.0000
  C   C30       1.0  0.35988203970349736  0.6732464763463725  0.9213744660099682  1.0000
  C   C31       1.0  0.8598820397734683  0.8267535243048318  0.421374466342552  1.0000
  C   C32       1.0  0.35988203964056614  0.32675352346420233  0.421374465808718  1.0000
  C   C33       1.0  0.09486772013760578  0.8350741580438213  0.1459935469177374  1.0000
  C   C34       1.0  0.5948677202694735  0.33507415813853403  0.14599354636661063  1.0000
  C   C35       1.0  0.09486772019950267  0.16492584176675337  0.6459935460340268  1.0000
  C   C36       1.0  0.5948677199043477  0.6649258426073829  0.6459935462789554  1.0000
  C   C37       1.0  0.9051322798249697  0.16492584176675337  0.8540064531785648  1.0000
  C   C38       1.0  0.40513228012115904  0.6649258426073829  0.8540064540185969  1.0000
  C   C39       1.0  0.9051322797620384  0.8350741580438213  0.35400645297731465  1.0000
  C   C40       1.0  0.4051322800582278  0.33507415813853403  0.35400645381734674  1.0000
  C   C41       1.0  0.07013990861992395  0.9516069662175685  0.15480592301116378  1.0000
  C   C42       1.0  0.5701399087517918  0.45160696631228103  0.15480592246003694  1.0000
  C   C43       1.0  0.07013990868285526  0.04839303359300632  0.6548059232124139  1.0000
  C   C44       1.0  0.5701399088147232  0.5483930334982937  0.6548059226612871  1.0000
  C   C45       1.0  0.9298600913426515  0.04839303359300632  0.8451940770851385  1.0000
  C   C46       1.0  0.4298600912107837  0.5483930334982937  0.8451940776362651  1.0000
  C   C47       1.0  0.9298600912797201  0.9516069662175685  0.3451940768838882  1.0000
  C   C48       1.0  0.42986009114785234  0.45160696631228103  0.345194077435015  1.0000
  C   C49       1.0  0.090153162506411  0.05971749253109729  0.09944215697738933  1.0000
  C   C50       1.0  0.5901531626382789  0.5597174933717268  0.09944215642626258  1.0000
  C   C51       1.0  0.0901531625683079  0.9402825072794775  0.5994421560936788  1.0000
  C   C52       1.0  0.5901531627012102  0.4402825073741901  0.5994421566275128  1.0000
  C   C53       1.0  0.9098468374561645  0.9402825072794775  0.9005578431189128  1.0000
  C   C54       1.0  0.4098468373242966  0.4402825073741901  0.9005578436700397  1.0000
  C   C55       1.0  0.9098468373932331  0.05971749253109729  0.40055784291766267  1.0000
  C   C56       1.0  0.40984683726136534  0.5597174933717268  0.40055784346878953  1.0000
  C   C57       1.0  0.13584736437482908  0.04822626301889745  0.032289172890883996  1.0000
  C   C58       1.0  0.6358473645066969  0.548226263859527  0.03228917233975719  1.0000
  C   C59       1.0  0.135847364436726  0.9517737367916773  0.5322891720071733  1.0000
  C   C60       1.0  0.6358473645696282  0.45177373688638994  0.5322891725410074  1.0000
  C   C61       1.0  0.8641526355877465  0.9517737367916773  0.9677108272054182  1.0000
  C   C62       1.0  0.36415263545587856  0.45177373688638994  0.9677108277565448  1.0000
  C   C63       1.0  0.8641526355248151  0.04822626301889745  0.46771082700416805  1.0000
  C   C64       1.0  0.3641526353929473  0.548226263859527  0.4677108275552948  1.0000
  C   C65       1.0  0.1611280870439061  0.9331228782368661  0.0218635509132513  1.0000
  C   C66       1.0  0.6611280871768084  0.4331228783315787  0.02186355144708532  1.0000
  C   C67       1.0  0.16112808710683738  0.0668771225090508  0.5218635511145014  1.0000
  C   C68       1.0  0.6611280872397396  0.5668771224143382  0.5218635516483354  1.0000
  C   C69       1.0  0.8388719129186694  0.0668771225090508  0.9781364491830509  1.0000
  C   C70       1.0  0.33887191278576717  0.5668771224143382  0.978136448649217  1.0000
  C   C71       1.0  0.838871912855738  0.9331228782368661  0.4781364489818008  1.0000
  C   C72       1.0  0.33887191272283584  0.4331228783315787  0.4781364484479667  1.0000
  C   C73       1.0  0.06430535468631747  0.1854839453224817  0.1119827783018274  1.0000
  C   C74       1.0  0.5643053543901281  0.6854839461631113  0.11198277746179533  1.0000
  C   C75       1.0  0.06430535474924877  0.814516054488093  0.6119827785030776  1.0000
  C   C76       1.0  0.5643053544530594  0.3145160545828057  0.6119827776630454  1.0000
  C   C77       1.0  0.9356946452762581  0.814516054488093  0.888017221794475  1.0000
  C   C78       1.0  0.43569464557141296  0.3145160545828057  0.8880172215495461  1.0000
  C   C79       1.0  0.9356946456413839  0.1854839453224817  0.3880172218821299  1.0000
  C   C80       1.0  0.4356946455095161  0.6854839461631113  0.38801722243325676  1.0000
  C   C81       1.0  0.9999999998169198  0.5649228783399106  0.24999999941369208  1.0000
  C   C82       1.0  0.4999999999498221  0.06492287843462331  0.249999999947526  1.0000
  C   C83       1.0  0.9999999998798511  0.4350771214706641  0.7499999996149422  1.0000
  C   C84       1.0  0.5000000000127534  0.9350771213759514  0.7500000001487762  1.0000
  C   C85       1.0  0.9506749815915471  0.492262328464402  0.15515226718652234  1.0000
  C   C86       1.0  0.4506749814586448  0.9922623283696894  0.1551522666526884  1.0000
  C   C87       1.0  0.9506749816544785  0.5077376722815149  0.6551522673877725  1.0000
  C   C88       1.0  0.4506749815215761  0.00773767237622754  0.6551522668539386  1.0000
  C   C89       1.0  0.04932501837102843  0.5077376722815149  0.8448477329097798  1.0000
  C   C90       1.0  0.5493250185039307  0.00773767237622754  0.8448477334436137  1.0000
  C   C91       1.0  0.04932501830809712  0.492262328464402  0.34484773270852964  1.0000
  C   C92       1.0  0.5493250184409993  0.9922623283696894  0.3448477332423637  1.0000
  N   N1        1.0  0.2381535140988306  0.692562243462409  0.19525851039604306  1.0000
  N   N2        1.0  0.7381535142306983  0.19256224355712165  0.1952585098449162  1.0000
  N   N3        1.0  0.23815351416176184  0.3074377563481657  0.6952585105972932  1.0000
  N   N4        1.0  0.7381535142936297  0.807437756253453  0.6952585100461665  1.0000
  N   N5        1.0  0.7618464858637448  0.3074377563481657  0.804741489700259  1.0000
  N   N6        1.0  0.2618464857318771  0.807437756253453  0.804741490251386  1.0000
  N   N7        1.0  0.7618464858008137  0.692562243462409  0.30474148949900903  1.0000
  N   N8        1.0  0.2618464856689458  0.19256224355712165  0.30474149005013584  1.0000
  O   O1        1.0  0.14221565327777924  0.5860791481807657  0.12842660750440033  1.0000
  O   O2        1.0  0.6422156534096471  0.08607914827547837  0.12842660695327354  1.0000
  O   O3        1.0  0.14221565334071057  0.413920851629809  0.6284266077056505  1.0000
  O   O4        1.0  0.6422156534725784  0.9139208515350963  0.6284266071545237  1.0000
  O   O5        1.0  0.8577843466847963  0.413920851629809  0.8715733925919018  1.0000
  O   O6        1.0  0.3577843465529284  0.9139208515350963  0.8715733931430286  1.0000
  O   O7        1.0  0.8577843466218649  0.5860791481807657  0.3715733923906516  1.0000
  O   O8        1.0  0.357784346489997  0.08607914827547837  0.37157339294177844  1.0000
  O   O9        1.0  0.18637316632195353  0.6654415687687211  0.9296080356973858  1.0000
  O   O10       1.0  0.6863731664538215  0.1654415688634337  0.929608035146259  1.0000
  O   O11       1.0  0.18637316625902223  0.3345584310418537  0.42960803549613563  1.0000
  O   O12       1.0  0.6863731663908902  0.8345584309471411  0.4296080349450088  1.0000
  O   O13       1.0  0.8136268336406218  0.3345584310418537  0.07039196439891635  1.0000
  O   O14       1.0  0.31362683350875414  0.8345584309471411  0.07039196495004324  1.0000
  O   O15       1.0  0.8136268337035534  0.6654415687687211  0.5703919646001666  1.0000
  O   O16       1.0  0.313626833570651  0.1654415688634337  0.5703919640663326  1.0000
  O   O17       1.0  0.9999999998169198  0.6805272003987571  0.24999999941369208  1.0000
  O   O18       1.0  0.4999999999498221  0.18052720049346976  0.249999999947526  1.0000
  O   O19       1.0  0.9999999998798511  0.3194728003471598  0.7499999996149422  1.0000
  O   O20       1.0  0.5000000000127534  0.8194728002524473  0.7500000001487762  1.0000
  S   S1        1.0  0.17422629211592855  0.6814717435327421  0.07529517628694826  1.0000
  S   S2        1.0  0.6742262922488307  0.18147174362745475  0.07529517682078218  1.0000
  S   S3        1.0  0.17422629217885985  0.3185282562778326  0.5752951764881984  1.0000
  S   S4        1.0  0.6742262923107276  0.8185282561831201  0.5752951759370717  1.0000
  S   S5        1.0  0.8257737078466469  0.3185282562778326  0.9247048238093538  1.0000
  S   S6        1.0  0.3257737077137447  0.8185282561831201  0.92470482327552  1.0000
  S   S7        1.0  0.8257737077837156  0.6814717435327421  0.4247048236081038  1.0000
  S   S8        1.0  0.32577370765081337  0.18147174362745475  0.4247048230742698  1.0000
