data_image0
_chemical_formula_structural       H104C96N8O20S8
_chemical_formula_sum              "H104 C96 N8 O20 S8"
_cell_length_a       23.96934988996034
_cell_length_b       10.878622489567313
_cell_length_c       9.202271470024861
_cell_angle_alpha    90.0
_cell_angle_beta     107.65656061719491
_cell_angle_gamma    90.0

_space_group_name_H-M_alt    "P 1"
_space_group_IT_number       1

loop_
  _space_group_symop_operation_xyz
  'x, y, z'

loop_
  _atom_site_type_symbol
  _atom_site_label
  _atom_site_symmetry_multiplicity
  _atom_site_fract_x
  _atom_site_fract_y
  _atom_site_fract_z
  _atom_site_occupancy
  H   H1        1.0  0.2666398647026577  0.7398315271734478  0.1518561512561875  1.0000
  H   H2        1.0  0.7666398648921816  0.2398315276131778  0.15185615173875677  1.0000
  H   H3        1.0  0.2666398647891701  0.2601684728663263  0.6518561517232061  1.0000
  H   H4        1.0  0.7666398649780636  0.7601684724265962  0.6518561511185903  1.0000
  H   H5        1.0  0.7333601349725057  0.2601684728663263  0.8481438477799502  1.0000
  H   H6        1.0  0.23336013522143637  0.7601684724265962  0.8481438487288998  1.0000
  H   H7        1.0  0.7333601348866237  0.7398315271734478  0.3481438484001166  1.0000
  H   H8        1.0  0.23336013513492404  0.2398315276131778  0.34814384826188133  1.0000
  H   H9        1.0  0.29433240750144674  0.8837464641520423  0.3452878658651078  1.0000
  H   H10       1.0  0.7943324072531465  0.3837464636725382  0.34528786600334316  1.0000
  H   H11       1.0  0.294332407150135  0.11625353588773181  0.8452878659877924  1.0000
  H   H12       1.0  0.7943324073390284  0.6162535363672358  0.8452878653831766  1.0000
  H   H13       1.0  0.7056675926121712  0.11625353588773181  0.654712134602549  1.0000
  H   H14       1.0  0.20566759286047157  0.6162535363672358  0.6547121344643136  1.0000
  H   H15       1.0  0.7056675925256588  0.8837464641520423  0.1547121341355303  1.0000
  H   H16       1.0  0.20566759277395918  0.3837464636725382  0.15471213399729503  1.0000
  H   H17       1.0  0.19537318512453403  0.5611108967016637  0.38655527945128565  1.0000
  H   H18       1.0  0.6953731853134276  0.061110896222159636  0.3865552788466698  1.0000
  H   H19       1.0  0.19537318521041605  0.4388891033381104  0.8865552788311191  1.0000
  H   H20       1.0  0.69537318539994  0.9388891038176144  0.8865552793136885  1.0000
  H   H21       1.0  0.8046268145512597  0.4388891033381104  0.6134447206720371  1.0000
  H   H22       1.0  0.30462681479956005  0.9388891038176144  0.6134447205338018  1.0000
  H   H23       1.0  0.8046268149025717  0.5611108967016637  0.11344472054935253  1.0000
  H   H24       1.0  0.30462681471367803  0.061110896222159636  0.11344472115396831  1.0000
  H   H25       1.0  0.07563154618116946  0.7387009814621875  0.17327867569766228  1.0000
  H   H26       1.0  0.5756315463706934  0.23870098190191752  0.17327867618023157  1.0000
  H   H27       1.0  0.07563154626768183  0.26129901857758653  0.6732786761646808  1.0000
  H   H28       1.0  0.5756315460187511  0.7612990181378565  0.673278675215731  1.0000
  H   H29       1.0  0.9243684539324486  0.26129901857758653  0.8267213247699944  1.0000
  H   H30       1.0  0.4243684537429247  0.7612990181378565  0.8267213242874252  1.0000
  H   H31       1.0  0.9243684538459361  0.7387009814621875  0.3267213243029758  1.0000
  H   H32       1.0  0.42436845365641224  0.23870098190191752  0.3267213238204066  1.0000
  H   H33       1.0  0.032954024960019236  0.9409798657704087  0.20105774206894028  1.0000
  H   H34       1.0  0.5329540247117189  0.44097986621013874  0.20105774220717562  1.0000
  H   H35       1.0  0.03295402504653162  0.05902013426936532  0.7010577425359589  1.0000
  H   H36       1.0  0.532954024797601  0.5590201338296352  0.7010577415870092  1.0000
  H   H37       1.0  0.9670459751535988  0.05902013426936532  0.7989422583987164  1.0000
  H   H38       1.0  0.46704597496407485  0.5590201338296352  0.798942257916147  1.0000
  H   H39       1.0  0.9670459750670863  0.9409798657704087  0.2989422579316978  1.0000
  H   H40       1.0  0.4670459753153867  0.44097986621013874  0.29894225779346256  1.0000
  H   H41       1.0  0.15185092085130483  0.11907611016397378  0.9992597550984685  1.0000
  H   H42       1.0  0.6518509210408288  0.6190761106434778  0.999259755581038  1.0000
  H   H43       1.0  0.15185092076479245  0.8809238889565663  0.4992597546314499  1.0000
  H   H44       1.0  0.6518509209543163  0.38092388939629623  0.4992597551140192  1.0000
  H   H45       1.0  0.8481490792623131  0.8809238889565663  0.0007402453691881949  1.0000
  H   H46       1.0  0.3481490790727893  0.38092388939629623  0.0007402448866189042  1.0000
  H   H47       1.0  0.848149078910371  0.11907611016397378  0.5007402444046877  1.0000
  H   H48       1.0  0.34814907915930166  0.6190761106434778  0.5007402453536375  1.0000
  H   H49       1.0  0.19649009317041655  0.9192063958088252  0.9749013517206396  1.0000
  H   H50       1.0  0.6964900929221162  0.41920639532932125  0.9749013518588748  1.0000
  H   H51       1.0  0.19649009308390414  0.08079360423094875  0.47490135125362104  1.0000
  H   H52       1.0  0.6964900928356039  0.5807936047104528  0.47490135139185635  1.0000
  H   H53       1.0  0.8035099069432015  0.08079360423094875  0.025098648747017067  1.0000
  H   H54       1.0  0.3035099071915018  0.5807936047104528  0.02509864860878175  1.0000
  H   H55       1.0  0.8035099070290834  0.9192063958088252  0.5250986481268506  1.0000
  H   H56       1.0  0.3035099068395596  0.41920639532932125  0.5250986476442813  1.0000
  H   H57       1.0  0.029001377079969113  0.1588717203540668  0.17383588855684962  1.0000
  H   H58       1.0  0.5290013768316688  0.6588717208335708  0.17383588869508496  1.0000
  H   H59       1.0  0.029001376728657307  0.8411282796857071  0.6738358886795341  1.0000
  H   H60       1.0  0.5290013769175509  0.3411282792062032  0.6738358880749186  1.0000
  H   H61       1.0  0.9709986230336489  0.8411282796857071  0.8261641119108071  1.0000
  H   H62       1.0  0.4709986232819492  0.3411282792062032  0.8261641117725718  1.0000
  H   H63       1.0  0.9709986229471365  0.1588717203540668  0.3261641114437885  1.0000
  H   H64       1.0  0.4709986231954368  0.6588717208335708  0.3261641113055532  1.0000
  H   H65       1.0  0.04632635185322793  0.21323344589120521  0.01107643804173886  1.0000
  H   H66       1.0  0.5463263520421214  0.7132334454514753  0.01107643743712305  1.0000
  H   H67       1.0  0.046326351939109965  0.7867665541485688  0.5110764374215724  1.0000
  H   H68       1.0  0.5463263516908097  0.2867665545882988  0.5110764375598077  1.0000
  H   H69       1.0  0.95367364826039  0.7867665541485688  0.9889235624259178  1.0000
  H   H70       1.0  0.4536736480708662  0.2867665545882988  0.9889235619433485  1.0000
  H   H71       1.0  0.9536736481738779  0.21323344589120521  0.4889235619588993  1.0000
  H   H72       1.0  0.45367364798498416  0.7132334454514753  0.48892356256351505  1.0000
  H   H73       1.0  0.09809848209392778  0.22857832068211634  0.19347189907051632  1.0000
  H   H74       1.0  0.5980984822828213  0.7285783211616204  0.19347189846590054  1.0000
  H   H75       1.0  0.09809848217980979  0.7714216793576577  0.6934718984503498  1.0000
  H   H76       1.0  0.5980984819315095  0.27142167887815366  0.6934718985885852  1.0000
  H   H77       1.0  0.9019015180196903  0.7714216793576577  0.8065281013971404  1.0000
  H   H78       1.0  0.40190151783016637  0.27142167887815366  0.8065281009145711  1.0000
  H   H79       1.0  0.9019015179331779  0.22857832068211634  0.30652810093012184  1.0000
  H   H80       1.0  0.4019015177442843  0.7285783211616204  0.30652810153473764  1.0000
  H   H81       1.0  0.9564044848314384  0.5793200201628345  0.026051642918761126  1.0000
  H   H82       1.0  0.45640448464191447  0.07932002060256443  0.026051642436191787  1.0000
  H   H83       1.0  0.9564044844801265  0.42067997987693956  0.5260516430414456  1.0000
  H   H84       1.0  0.4564044847284268  0.9206799794372096  0.5260516429032104  1.0000
  H   H85       1.0  0.04359551528154935  0.42067997987693956  0.9739483564617106  1.0000
  H   H86       1.0  0.5435955154710732  0.9206799794372096  0.9739483569442798  1.0000
  H   H87       1.0  0.043595515195667324  0.5793200201628345  0.47394835708187705  1.0000
  H   H88       1.0  0.5435955153851912  0.07932002060256443  0.4739483575644464  1.0000
  H   H89       1.0  0.9129518309866319  0.5794025140632213  0.152860387351163  1.0000
  H   H90       1.0  0.41295183079710807  0.0794025135837172  0.15286038686859374  1.0000
  H   H91       1.0  0.9129518310725139  0.42059748597655283  0.6528603867309964  1.0000
  H   H92       1.0  0.41295183088362036  0.9205974864560569  0.6528603873356122  1.0000
  H   H93       1.0  0.08704816912698608  0.42059748597655283  0.8471396131164937  1.0000
  H   H94       1.0  0.58704816931651  0.9205974864560569  0.847139613599063  1.0000
  H   H95       1.0  0.08704816904047372  0.5794025140632213  0.3471396126494751  1.0000
  H   H96       1.0  0.5870481692299977  0.0794025135837172  0.3471396131320445  1.0000
  H   H97       1.0  0.9522487573816268  0.35049097012572705  0.1316494925896727  1.0000
  H   H98       1.0  0.4522487576299271  0.850490969685997  0.13164949245143734  1.0000
  H   H99       1.0  0.9522487574681393  0.6495090299140469  0.6316494930566913  1.0000
  H   H100      1.0  0.4522487572786153  0.14950903035377694  0.631649492574122  1.0000
  H   H101      1.0  0.04775124273199118  0.6495090299140469  0.8683505078779841  1.0000
  H   H102      1.0  0.5477512424830605  0.14950903035377694  0.8683505069290343  1.0000
  H   H103      1.0  0.0477512426454788  0.35049097012572705  0.3683505074109655  1.0000
  H   H104      1.0  0.5477512423971785  0.850490969685997  0.3683505075492008  1.0000
  C   C1        1.0  0.24376331117616  0.719132816448267  0.3488105348228364  1.0000
  C   C2        1.0  0.7437633109278597  0.219132816887997  0.3488105349610717  1.0000
  C   C3        1.0  0.2437633112626724  0.28086718359150703  0.8488105352898551  1.0000
  C   C4        1.0  0.7437633110137417  0.7808671831517771  0.8488105343409051  1.0000
  C   C5        1.0  0.756236688937458  0.28086718359150703  0.6511894656448204  1.0000
  C   C6        1.0  0.2562366887479341  0.7808671831517771  0.651189465162251  1.0000
  C   C7        1.0  0.7562366888509455  0.719132816448267  0.15118946517780169  1.0000
  C   C8        1.0  0.25623668909924585  0.219132816887997  0.1511894650395664  1.0000
  C   C9        1.0  0.275005477483795  0.824849529304413  0.4130730703526733  1.0000
  C   C10       1.0  0.7750054776733188  0.324849529744143  0.4130730708352427  1.0000
  C   C11       1.0  0.27500547757030736  0.17515047073536102  0.9130730708196919  1.0000
  C   C12       1.0  0.775005477759201  0.675150470295631  0.913073070215076  1.0000
  C   C13       1.0  0.724994522629823  0.17515047073536102  0.5869269301149833  1.0000
  C   C14       1.0  0.22499452244029913  0.675150470295631  0.586926929632414  1.0000
  C   C15       1.0  0.7249945225433105  0.824849529304413  0.08692692964796475  1.0000
  C   C16       1.0  0.22499452235378672  0.324849529744143  0.08692692916539552  1.0000
  C   C17       1.0  0.2186574991481078  0.64431973687128  0.43595352081861155  1.0000
  C   C18       1.0  0.7186574988998077  0.14431973639177595  0.43595352095684686  1.0000
  C   C19       1.0  0.21865749879679602  0.35568026316849405  0.9359535209412962  1.0000
  C   C20       1.0  0.7186574989856896  0.8556802636479981  0.9359535203366804  1.0000
  C   C21       1.0  0.7813425009655102  0.35568026316849405  0.5640464796490452  1.0000
  C   C22       1.0  0.28134250121381044  0.8556802636479981  0.5640464795108099  1.0000
  C   C23       1.0  0.7813425008789978  0.64431973687128  0.06404647918202663  1.0000
  C   C24       1.0  0.2813425011272981  0.14431973639177595  0.06404647904379127  1.0000
  C   C25       1.0  0.13859061873879858  0.8169404930194869  0.0727574639286274  1.0000
  C   C26       1.0  0.6385906189283225  0.31694049253998297  0.07275746441119675  1.0000
  C   C27       1.0  0.13859061882531096  0.18305950702028703  0.572757464395646  1.0000
  C   C28       1.0  0.6385906190142046  0.683059507499791  0.5727574637910302  1.0000
  C   C29       1.0  0.8614093809369954  0.18305950702028703  0.9272425361946954  1.0000
  C   C30       1.0  0.3614093811852955  0.683059507499791  0.92724253605646  1.0000
  C   C31       1.0  0.8614093808504829  0.8169404930194869  0.4272425357276768  1.0000
  C   C32       1.0  0.3614093810987831  0.31694049253998297  0.42724253558944136  1.0000
  C   C33       1.0  0.0926593052176354  0.8220627325358815  0.13645592946429813  1.0000
  C   C34       1.0  0.5926593054071593  0.32206273205637753  0.13645592994686745  1.0000
  C   C35       1.0  0.0926593053041478  0.1779372675038925  0.6364559299313167  1.0000
  C   C36       1.0  0.5926593054930414  0.6779372679833966  0.6364559293267009  1.0000
  C   C37       1.0  0.9073406948959826  0.1779372675038925  0.8635440710033585  1.0000
  C   C38       1.0  0.4073406947064587  0.6779372679833966  0.8635440705207893  1.0000
  C   C39       1.0  0.9073406948094702  0.8220627325358815  0.3635440705363399  1.0000
  C   C40       1.0  0.40734069461994626  0.32206273205637753  0.36354407005377065  1.0000
  C   C41       1.0  0.06857263484879615  0.9363766671533023  0.15073025637575482  1.0000
  C   C42       1.0  0.56857263503832  0.43637666667379815  0.15073025685832422  1.0000
  C   C43       1.0  0.06857263493530852  0.06362333288647182  0.6507302568427735  1.0000
  C   C44       1.0  0.5685726346863779  0.5636233333659758  0.6507302558938236  1.0000
  C   C45       1.0  0.9314273652648218  0.06362333288647182  0.8492697440919019  1.0000
  C   C46       1.0  0.43142736507529794  0.5636233333659758  0.8492697436093326  1.0000
  C   C47       1.0  0.9314273651783096  0.9363766671533023  0.34926974362488333  1.0000
  C   C48       1.0  0.43142736498878553  0.43637666667379815  0.34926974314231396  1.0000
  C   C49       1.0  0.0894814834204895  0.04455243027918301  0.10328792102383272  1.0000
  C   C50       1.0  0.5894814831721893  0.5445524298394531  0.10328792116206806  1.0000
  C   C51       1.0  0.0894814835070019  0.9554475697605911  0.6032879214908513  1.0000
  C   C52       1.0  0.5894814832580711  0.455447570200321  0.6032879205419015  1.0000
  C   C53       1.0  0.9105185166931286  0.9554475697605911  0.896712079443824  1.0000
  C   C54       1.0  0.41051851650360455  0.455447570200321  0.8967120789612546  1.0000
  C   C55       1.0  0.9105185166066162  0.04455243027918301  0.3967120789768054  1.0000
  C   C56       1.0  0.4105185164170922  0.5445524298394531  0.3967120784942361  1.0000
  C   C57       1.0  0.13526226592320736  0.03606276073797317  0.03795158280027302  1.0000
  C   C58       1.0  0.6352622656742768  0.5360627602982432  0.03795158185132323  1.0000
  C   C59       1.0  0.1352622660090894  0.9639372393018008  0.5379515821801065  1.0000
  C   C60       1.0  0.6352622657607891  0.46393723974153084  0.5379515823183418  1.0000
  C   C61       1.0  0.8647377341904107  0.9639372393018008  0.9620484176673837  1.0000
  C   C62       1.0  0.36473773400088677  0.46393723974153084  0.9620484171848145  1.0000
  C   C63       1.0  0.8647377341038982  0.03606276073797317  0.4620484172003651  1.0000
  C   C64       1.0  0.36473773391500475  0.5360627602982432  0.46204841780498096  1.0000
  C   C65       1.0  0.16031329193097185  0.9234967965507171  0.02336114352778472  1.0000
  C   C66       1.0  0.6603132916820412  0.42349679699044707  0.023361142578834974  1.0000
  C   C67       1.0  0.1603132915790297  0.076503203489057  0.5233611425632843  1.0000
  C   C68       1.0  0.6603132917685536  0.576503203049327  0.5233611430458536  1.0000
  C   C69       1.0  0.8396867081826462  0.076503203489057  0.9766388569398721  1.0000
  C   C70       1.0  0.3396867079931222  0.576503203049327  0.9766388564573026  1.0000
  C   C71       1.0  0.8396867080961338  0.9234967965507171  0.4766388564728534  1.0000
  C   C72       1.0  0.3396867083450644  0.42349679699044707  0.47663885742180323  1.0000
  C   C73       1.0  0.06432371129164476  0.16748908345218902  0.12184422758687567  1.0000
  C   C74       1.0  0.5643237114811687  0.667489083012459  0.12184422806944496  1.0000
  C   C75       1.0  0.06432371137815714  0.8325109165875849  0.6218442280538943  1.0000
  C   C76       1.0  0.5643237111292265  0.332510917027315  0.6218442271049445  1.0000
  C   C77       1.0  0.9356762888219733  0.8325109165875849  0.8781557728807811  1.0000
  C   C78       1.0  0.43567628863244934  0.332510917027315  0.8781557723982116  1.0000
  C   C79       1.0  0.9356762887354609  0.16748908345218902  0.3781557724137625  1.0000
  C   C80       1.0  0.435676288545937  0.667489083012459  0.37815577193119315  1.0000
  C   C81       1.0  0.9569647324340086  0.5589431792335178  0.1440430726998915  1.0000
  C   C82       1.0  0.45696473268230886  0.05894317967324776  0.14404307256165616  1.0000
  C   C83       1.0  0.9569647325205208  0.44105682080625624  0.6440430731669101  1.0000
  C   C84       1.0  0.45696473233099705  0.9410568203665262  0.6440430726843408  1.0000
  C   C85       1.0  0.04303526767960943  0.44105682080625624  0.8559569277677652  1.0000
  C   C86       1.0  0.5430352674306788  0.9410568203665262  0.8559569268188154  1.0000
  C   C87       1.0  0.04303526759309705  0.5589431792335178  0.35595692730074663  1.0000
  C   C88       1.0  0.5430352673447968  0.05894317967324776  0.3559569274389819  1.0000
  C   C89       1.0  0.97580136186088  0.43026055132336594  0.1903163562636847  1.0000
  C   C90       1.0  0.47580136167135595  0.9302605508836359  0.19031635578111544  1.0000
  C   C91       1.0  0.9758013619473922  0.569739448716408  0.6903163567307034  1.0000
  C   C92       1.0  0.47580136175786836  0.06973944915613808  0.690316356248134  1.0000
  C   C93       1.0  0.024198638252738165  0.569739448716408  0.8096836442039719  1.0000
  C   C94       1.0  0.5241986384416317  0.06973944915613808  0.8096836435993562  1.0000
  C   C95       1.0  0.024198638166225795  0.43026055132336594  0.30968364373695334  1.0000
  C   C96       1.0  0.5241986383557496  0.9302605508836359  0.30968364421952266  1.0000
  N   N1        1.0  0.2394484523749289  0.6876495491202156  0.19573500029428553  1.0000
  N   N2        1.0  0.7394484521266287  0.1876495495599456  0.19573500043252087  1.0000
  N   N3        1.0  0.23944845246144128  0.3123504509195585  0.6957350007613041  1.0000
  N   N4        1.0  0.7394484522125107  0.8123504504798285  0.6957349998123544  1.0000
  N   N5        1.0  0.7605515477386892  0.3123504509195585  0.8042650001733712  1.0000
  N   N6        1.0  0.2605515475491652  0.8123504504798285  0.8042649996908019  1.0000
  N   N7        1.0  0.7605515476521768  0.6876495491202156  0.30426499970635257  1.0000
  N   N8        1.0  0.260551547900477  0.1876495495599456  0.30426499956811726  1.0000
  O   O1        1.0  0.14176396017519197  0.5788582475436616  0.11237593366415538  1.0000
  O   O2        1.0  0.6417639603647158  0.07885824706415756  0.11237593414672464  1.0000
  O   O3        1.0  0.14176396026170432  0.42114175249611246  0.6123759341311739  1.0000
  O   O4        1.0  0.6417639600127737  0.9211417529756164  0.6123759331822242  1.0000
  O   O5        1.0  0.858236039938426  0.42114175249611246  0.8876240668035013  1.0000
  O   O6        1.0  0.35823603974890217  0.9211417529756164  0.887624066320932  1.0000
  O   O7        1.0  0.8582360398519135  0.5788582475436616  0.3876240663364827  1.0000
  O   O8        1.0  0.35823603966238976  0.07885824706415756  0.3876240658539135  1.0000
  O   O9        1.0  0.1865261615474681  0.6652625547894944  0.922449260284486  1.0000
  O   O10       1.0  0.6865261612985375  0.16526255522922434  0.9224492593355363  1.0000
  O   O11       1.0  0.18652616146095577  0.3347374452502797  0.42244925981746745  1.0000
  O   O12       1.0  0.6865261616504796  0.8347374448105497  0.4224492603000367  1.0000
  O   O13       1.0  0.81347383856615  0.3347374452502797  0.07755074018317071  1.0000
  O   O14       1.0  0.313473838376626  0.8347374448105497  0.07755073970060139  1.0000
  O   O15       1.0  0.8134738386526621  0.6652625547894944  0.5775507406501893  1.0000
  O   O16       1.0  0.31347383846313837  0.16526255522922434  0.57755074016762  1.0000
  O   O17       1.0  4.294101353200577e-11  0.6358457816358257  0.24999999968991676  1.0000
  O   O18       1.0  0.49999999979464066  0.13584578207555567  0.24999999982815205  1.0000
  O   O19       1.0  1.2945339067634548e-10  0.3641542184039484  0.7500000001569354  1.0000
  O   O20       1.0  0.49999999988115307  0.8641542179642183  0.7500000002951707  1.0000
  S   S1        1.0  0.17396636392570883  0.6758421654075091  0.06728659673009539  1.0000
  S   S2        1.0  0.6739663641152327  0.17584216584723905  0.0672865972126647  1.0000
  S   S3        1.0  0.17396636401222118  0.324157834632265  0.5672865971971139  1.0000
  S   S4        1.0  0.6739663642011147  0.824157834192535  0.5672865965924982  1.0000
  S   S5        1.0  0.8260336361872788  0.324157834632265  0.9327134026503761  1.0000
  S   S6        1.0  0.3260336359983853  0.824157834192535  0.932713403254992  1.0000
  S   S7        1.0  0.8260336361013969  0.6758421654075091  0.43271340327054275  1.0000
  S   S8        1.0  0.3260336359118729  0.17584216584723905  0.4327134027879734  1.0000
