data_image0
_chemical_formula_structural       H34C42N10O24
_chemical_formula_sum              "H34 C42 N10 O24"
_cell_length_a       9.369435040134855
_cell_length_b       10.612347263940553
_cell_length_c       12.161719915853313
_cell_angle_alpha    95.54384864598427
_cell_angle_beta     108.6031693381011
_cell_angle_gamma    90.17378298029868

_space_group_name_H-M_alt    "P 1"
_space_group_IT_number       1

loop_
  _space_group_symop_operation_xyz
  'x, y, z'

loop_
  _atom_site_type_symbol
  _atom_site_label
  _atom_site_symmetry_multiplicity
  _atom_site_fract_x
  _atom_site_fract_y
  _atom_site_fract_z
  _atom_site_occupancy
  H   H1        1.0  0.6966683025566346  0.28316452688128996  0.22914126917799996  1.0000
  H   H2        1.0  0.30333169724761333  0.7168354728504254  0.7708587306270137  1.0000
  H   H3        1.0  0.588267944804251  0.38585844104109823  0.06842777468374667  1.0000
  H   H4        1.0  0.411732054999997  0.6141415586906172  0.9315722251212669  1.0000
  H   H5        1.0  0.6024099707212346  0.09078749627370336  0.26997567853060467  1.0000
  H   H6        1.0  0.3975900291429858  0.9092125044034127  0.7300243221926502  1.0000
  H   H7        1.0  0.40639449637054603  0.35092682927699687  0.8483151680710853  1.0000
  H   H8        1.0  0.5936055034936745  0.6490731714001193  0.15168483265216975  1.0000
  H   H9        1.0  0.2206817381937229  0.940158777848667  0.0735368441006347  1.0000
  H   H10       1.0  0.7793182616649357  0.059841222830310896  0.92646315579917  1.0000
  H   H11       1.0  0.40239425486404207  0.8794696435563291  0.13130904882238345  1.0000
  H   H12       1.0  0.597605744940206  0.12053035617538646  0.8686909509826302  1.0000
  H   H13       1.0  0.22904774263233868  0.09902405426646607  0.9513266148972974  1.0000
  H   H14       1.0  0.7709522571719094  0.9009759454652495  0.04867338490771622  1.0000
  H   H15       1.0  0.2360523881675811  0.2605597019361428  0.821583990086471  1.0000
  H   H16       1.0  0.7639476116910776  0.739440298742835  0.17841600981333386  1.0000
  H   H17       1.0  0.2699514952284211  0.40495987905208536  0.9141449501933852  1.0000
  H   H18       1.0  0.7300485057069267  0.5950401206660216  0.08585505070657061  1.0000
  H   H19       1.0  0.3253006335019392  0.9718503881053735  0.22560886494913213  1.0000
  H   H20       1.0  0.6746993674278466  0.028149611614594984  0.7743911351273736  1.0000
  H   H21       1.0  0.3135140182098923  0.7628628270823676  0.27322650568721435  1.0000
  H   H22       1.0  0.6864859815943557  0.23713717264934794  0.7267734941177993  1.0000
  H   H23       1.0  0.02746580614516515  0.6863397863876708  0.47743058477596156  1.0000
  H   H24       1.0  0.9725341936590829  0.3136602133440446  0.5225694150290521  1.0000
  H   H25       1.0  0.9893691472166454  0.4477751981865082  0.16145658308914476  1.0000
  H   H26       1.0  0.010630852647575082  0.5522248024906079  0.8385434176341103  1.0000
  H   H27       1.0  0.21761175338929906  0.31100604009154753  0.1884231636662174  1.0000
  H   H28       1.0  0.7823882464693597  0.6889939605874305  0.8115768362335875  1.0000
  H   H29       1.0  0.46177741553954693  0.3020163110841744  0.5545068355294474  1.0000
  H   H30       1.0  0.5382225842647012  0.6979836886475411  0.4454931642755663  1.0000
  H   H31       1.0  0.688147626676436  0.45905308969231173  0.4236062785790785  1.0000
  H   H32       1.0  0.3118523731278121  0.5409469100394038  0.5763937212259351  1.0000
  H   H33       1.0  0.0350691231561061  0.0962929150929023  0.39994376937550324  1.0000
  H   H34       1.0  0.9649308767025524  0.9037070855860756  0.6000562305243016  1.0000
  C   C1        1.0  0.530067602288392  0.2998354187730189  0.07536087307026554  1.0000
  C   C2        1.0  0.4699323986958046  0.700164581894212  0.9246391271010315  1.0000
  C   C3        1.0  0.3962106404396391  0.25198748004763144  0.9922776703996606  1.0000
  C   C4        1.0  0.6037893604901469  0.7480125196723372  0.007722329676845207  1.0000
  C   C5        1.0  0.33378124827093897  0.14046678589461278  0.013805101774358265  1.0000
  C   C6        1.0  0.6662187515333091  0.8595332138371027  0.9861948980306553  1.0000
  C   C7        1.0  0.40237936178607164  0.07898415113280839  0.11343410170938022  1.0000
  C   C8        1.0  0.5976206380181763  0.9210158485989072  0.8865658980956335  1.0000
  C   C9        1.0  0.5378944185859827  0.13154653622466972  0.19092585440405918  1.0000
  C   C10       1.0  0.46210558122382706  0.868453463505184  0.8090741462244047  1.0000
  C   C11       1.0  0.3233621280900793  0.3205497963223649  0.8876305824685995  1.0000
  C   C12       1.0  0.6766378728452683  0.679450203395742  0.11236941843135655  1.0000
  C   C13       1.0  0.33303375088804255  0.9615178589795338  0.13685175446038828  1.0000
  C   C14       1.0  0.6669662489162055  0.0384821407521818  0.8631482453446254  1.0000
  C   C15       1.0  0.993902310039384  0.5592786690324558  0.3207678861210997  1.0000
  C   C16       1.0  0.006097689819274695  0.4407213316465221  0.6792321137787053  1.0000
  C   C17       1.0  0.06089765227905407  0.6628130692456164  0.4004722758911135  1.0000
  C   C18       1.0  0.939102347525194  0.33718693048609905  0.5995277239139002  1.0000
  C   C19       1.0  0.17388430391528267  0.7342297723486033  0.38116613004349026  1.0000
  C   C20       1.0  0.8261156970145033  0.2657702273713653  0.6188338700330155  1.0000
  C   C21       1.0  0.22264597497936398  0.7076127096182437  0.2850440924036203  1.0000
  C   C22       1.0  0.777354024824884  0.2923872901134717  0.7149559074013935  1.0000
  C   C23       1.0  0.15337478163339238  0.6034692046971373  0.20756458045334836  1.0000
  C   C24       1.0  0.8466252181764176  0.3965307950327165  0.7924354201751155  1.0000
  C   C25       1.0  0.040925986484453815  0.5285195761679785  0.22381034911589334  1.0000
  C   C26       1.0  0.9590740133742047  0.4714804245109993  0.7761896507839116  1.0000
  C   C27       1.0  0.8721973953170017  0.4792992252896427  0.3393410321926499  1.0000
  C   C28       1.0  0.1278026044872463  0.5207007744420729  0.6606589676123639  1.0000
  C   C29       1.0  0.3531149754174844  0.3170337536626108  0.3704365668450219  1.0000
  C   C30       1.0  0.6468850243867637  0.6829662460691047  0.6295634329599917  1.0000
  C   C31       1.0  0.2281648842056579  0.27913533229714826  0.27298664942673523  1.0000
  C   C32       1.0  0.7718351155985903  0.7208646674345671  0.7270133503782784  1.0000
  C   C33       1.0  0.11808471299572912  0.19851705336882372  0.2854003371574629  1.0000
  C   C34       1.0  0.8819152868629294  0.8014829473101543  0.714599662742342  1.0000
  C   C35       1.0  0.12422296527261899  0.15697460294499652  0.39192010049467507  1.0000
  C   C36       1.0  0.875777034531629  0.843025396786719  0.6080798993103386  1.0000
  C   C37       1.0  0.25019517300310146  0.19663063219249585  0.4865141512889585  1.0000
  C   C38       1.0  0.7498048279266846  0.803369367527473  0.5134858487875472  1.0000
  C   C39       1.0  0.36570879865497524  0.27376957439272365  0.47779107775066926  1.0000
  C   C40       1.0  0.6342912012036833  0.7262304262862541  0.5222089221491357  1.0000
  C   C41       1.0  0.4714117922823995  0.40415446104270836  0.35672402832449884  1.0000
  C   C42       1.0  0.5285882086473864  0.5958455386772602  0.6432759717520068  1.0000
  N   N1        1.0  0.5957606018733591  0.23907663892184008  0.1694966677558639  1.0000
  N   N2        1.0  0.4042393979364507  0.7609233608080136  0.8305033328726  1.0000
  N   N3        1.0  0.24703539043159456  0.8399685508194502  0.467667874260987  1.0000
  N   N4        1.0  0.752964609427064  0.16003144985952775  0.5323321256388178  1.0000
  N   N5        1.0  0.2030722184123174  0.5691442952572533  0.10645417528814115  1.0000
  N   N6        1.0  0.7969277825174687  0.43085570446271537  0.8935458247883645  1.0000
  N   N7        1.0  0.9905896121917671  0.15422834787390124  0.18142217047384895  1.0000
  N   N8        1.0  0.009410387666891555  0.8457716528050766  0.8185778294259559  1.0000
  N   N9        1.0  0.2625665043044568  0.15540962179321757  0.6008990807794921  1.0000
  N   N10       1.0  0.7374334954997913  0.844590377938498  0.39910091902552164  1.0000
  O   O1        1.0  0.8453465617673662  0.37019802943454366  0.28391552791853075  1.0000
  O   O2        1.0  0.15465343916798152  0.6298019702835633  0.7160844729814252  1.0000
  O   O3        1.0  0.8082705177744285  0.529388225506358  0.4102766027969987  1.0000
  O   O4        1.0  0.19172948202981951  0.47061177422535744  0.589723397008015  1.0000
  O   O5        1.0  0.3375738723386513  0.910674329259145  0.44510152310183476  1.0000
  O   O6        1.0  0.6624261286511071  0.08932567140622412  0.5548984778929124  1.0000
  O   O7        1.0  0.21437538689316543  0.8530776817592786  0.559184724512061  1.0000
  O   O8        1.0  0.7856246129110827  0.14692231797243702  0.4408152752929526  1.0000
  O   O9        1.0  0.28922048529213296  0.6441520306946905  0.084426230661664  1.0000
  O   O10       1.0  0.7107795145121152  0.35584796903702487  0.9155737691433496  1.0000
  O   O11       1.0  0.15529109285832834  0.46629527953921807  0.048197030136873646  1.0000
  O   O12       1.0  0.8447089069514815  0.5337047201906358  0.9518029704915902  1.0000
  O   O13       1.0  0.6013457989715896  0.4043226609977273  0.44128638611365806  1.0000
  O   O14       1.0  0.3986542008326584  0.5956773387339882  0.5587136136913556  1.0000
  O   O15       1.0  0.4455762485057748  0.466210876114868  0.27220445364831974  1.0000
  O   O16       1.0  0.5544237512984731  0.5337891236168474  0.7277955461566938  1.0000
  O   O17       1.0  0.8961393108936355  0.07931514899065983  0.19343511114807985  1.0000
  O   O18       1.0  0.10386068891061244  0.9206848507410557  0.8065648886569338  1.0000
  O   O19       1.0  0.9860513597614848  0.19320414691561394  0.08743986884741797  1.0000
  O   O20       1.0  0.01394864117386281  0.8067958528024931  0.912560132052538  1.0000
  O   O21       1.0  0.3891886952644535  0.16088178213582716  0.6754019969762515  1.0000
  O   O22       1.0  0.6108113045397945  0.8391182175958882  0.3245980028287622  1.0000
  O   O23       1.0  0.1456763178644954  0.11777559291233893  0.616391594093253  1.0000
  O   O24       1.0  0.8543236819397526  0.8822244068193764  0.3836084057117606  1.0000
