data_image0
_chemical_formula_structural       H44C36N8O24Cl4
_chemical_formula_sum              "H44 C36 N8 O24 Cl4"
_cell_length_a       8.54510427215936
_cell_length_b       11.034072377801735
_cell_length_c       13.322107108993832
_cell_angle_alpha    67.37948701999446
_cell_angle_beta     84.41719594035105
_cell_angle_gamma    80.89738794427211

_space_group_name_H-M_alt    "P 1"
_space_group_IT_number       1

loop_
  _space_group_symop_operation_xyz
  'x, y, z'

loop_
  _atom_site_type_symbol
  _atom_site_label
  _atom_site_symmetry_multiplicity
  _atom_site_fract_x
  _atom_site_fract_y
  _atom_site_fract_z
  _atom_site_occupancy
  H   H1        1.0  0.5302922307521394  0.0031632587870649184  0.240514206083748  1.0000
  H   H2        1.0  0.46970776874086195  0.9968367414258783  0.7594857936263935  1.0000
  H   H3        1.0  0.7943521195898652  0.7692660585934947  0.2610127258233367  1.0000
  H   H4        1.0  0.2056478798541797  0.2307339412454967  0.738987274700641  1.0000
  H   H5        1.0  0.7996610046191616  0.6926581232521939  0.40562638674325663  1.0000
  H   H6        1.0  0.20033899487383994  0.3073418769607492  0.5943736129668848  1.0000
  H   H7        1.0  0.7880991061323879  0.8690100209077877  0.3399628922607882  1.0000
  H   H8        1.0  0.21190089453016644  0.13098997930758838  0.6600371074506901  1.0000
  H   H9        1.0  0.08859237420532592  0.8351402632559862  0.1942211535683529  1.0000
  H   H10       1.0  0.9114076264572283  0.16485973695938982  0.8057788461431254  1.0000
  H   H11       1.0  0.1445247414904035  0.6898925856752641  0.16441549663914762  1.0000
  H   H12       1.0  0.855475259172151  0.3101074145401119  0.8355845030723306  1.0000
  H   H13       1.0  0.17261021321812592  0.8490894934931446  0.06419699988900329  1.0000
  H   H14       1.0  0.8273897862748755  0.1509105067197987  0.935802999821138  1.0000
  H   H15       1.0  0.22649545991915473  0.7969910646580359  0.39024219379710895  1.0000
  H   H16       1.0  0.7735045406944431  0.20300893518338817  0.6097578067282057  1.0000
  H   H17       1.0  0.24777080540105326  0.6236671435289876  0.4714586885534123  1.0000
  H   H18       1.0  0.7522291952125446  0.3763328563124366  0.5285413119719025  1.0000
  H   H19       1.0  0.11187135357668089  0.6908116260589348  0.3653470410755333  1.0000
  H   H20       1.0  0.8881286459163207  0.30918837415400846  0.634652958634608  1.0000
  H   H21       1.0  0.3894402094812919  0.472891429446255  0.3681142804438763  1.0000
  H   H22       1.0  0.610559791132306  0.5271085703951692  0.6318857200814384  1.0000
  H   H23       1.0  0.7821899422480633  0.25502519247101874  0.08305891428730791  1.0000
  H   H24       1.0  0.21781005724493807  0.7449748077419246  0.9169410854228334  1.0000
  H   H25       1.0  0.2925386526441905  0.1995171936551124  0.35845550886615685  1.0000
  H   H26       1.0  0.7074613467998545  0.8004828061838789  0.6415444916578209  1.0000
  H   H27       1.0  0.1825241363369128  0.07472392789260807  0.35946059241515577  1.0000
  H   H28       1.0  0.817475863107132  0.9252760719463833  0.640539408108822  1.0000
  H   H29       1.0  0.14277096195255362  0.1412141849384338  0.4627277957890377  1.0000
  H   H30       1.0  0.8572290377319259  0.8587858143574136  0.5372722039194854  1.0000
  H   H31       1.0  0.21996228879840826  0.47384569808093574  0.0817622394720998  1.0000
  H   H32       1.0  0.7800377106945929  0.5261543021320075  0.9182377602380415  1.0000
  H   H33       1.0  0.296611610749954  0.3940190303497478  0.21325398929642214  1.0000
  H   H34       1.0  0.7033883886940908  0.6059809694892436  0.7867460112275555  1.0000
  H   H35       1.0  0.33291836732942365  0.3158210181455124  0.11689855595645743  1.0000
  H   H36       1.0  0.6670816333331308  0.6841789820698635  0.8831014437550209  1.0000
  H   H37       1.0  0.7735107264032475  0.45967662675651344  0.18087782800903074  1.0000
  H   H38       1.0  0.22648927421035037  0.5403233730849107  0.8191221725162839  1.0000
  H   H39       1.0  0.6249910380249025  0.4035224613235944  0.284603303066792  1.0000
  H   H40       1.0  0.3750089614191423  0.596477538515397  0.7153966974571857  1.0000
  H   H41       1.0  0.6042374489925216  0.40362895486451356  0.15277720773154765  1.0000
  H   H42       1.0  0.3957625505004797  0.5963710453484297  0.8472227919785937  1.0000
  H   H43       1.0  0.6409428189446326  0.1329898077675378  0.36764955634515906  1.0000
  H   H44       1.0  0.35905718073984694  0.8670101915283096  0.6323504433633641  1.0000
  C   C1        1.0  0.517904402056869  0.6590127308695487  0.35271346907009765  1.0000
  C   C2        1.0  0.4820955974361323  0.3409872693433946  0.6472865306400437  1.0000
  C   C3        1.0  0.5698843839453017  0.7904476544952551  0.34323620283259104  1.0000
  C   C4        1.0  0.4301156157391777  0.20955234480059218  0.6567637968759322  1.0000
  C   C5        1.0  0.4940212097223099  0.9078483873389249  0.25301846843919706  1.0000
  C   C6        1.0  0.5059787909402444  0.09215161287645104  0.7469815312722813  1.0000
  C   C7        1.0  0.39212923895440577  0.8998083555761647  0.1860414139405457  1.0000
  C   C8        1.0  0.6078707605385956  0.10019164463677875  0.8139585857695957  1.0000
  C   C9        1.0  0.3380999783284227  0.7728225434200877  0.19312598009496365  1.0000
  C   C10       1.0  0.6619000223341316  0.22717745679528836  0.8068740196165146  1.0000
  C   C11       1.0  0.35568277227923045  0.665885654224025  0.31028272155230874  1.0000
  C   C12       1.0  0.644317228383324  0.33411434599135115  0.6897172781591696  1.0000
  C   C13       1.0  0.7506523597625164  0.7797288981915417  0.3377012283177278  1.0000
  C   C14       1.0  0.24934764090003794  0.22027110202383438  0.6622987713937506  1.0000
  C   C15       1.0  0.17603151809215598  0.7873188491534225  0.15084652397946602  1.0000
  C   C16       1.0  0.823968482521442  0.21268115068800153  0.8491534765458485  1.0000
  C   C17       1.0  0.2279893019375523  0.6979937722651295  0.3892851517129701  1.0000
  C   C18       1.0  0.7720106987250022  0.30200622795024645  0.6107148479985083  1.0000
  C   C19       1.0  0.8872599397894185  0.21796409946415848  0.33886918213070477  1.0000
  C   C20       1.0  0.11274005970358288  0.7820359007487848  0.6611308175794366  1.0000
  C   C21       1.0  0.05058031836166942  0.2688478385293097  0.3064684054609678  1.0000
  C   C22       1.0  0.9494196810823755  0.7311521613096816  0.69353159506301  1.0000
  C   C23       1.0  0.0952194676103496  0.3145193649610647  0.18671178533810842  1.0000
  C   C24       1.0  0.9047805330032483  0.6854806348803595  0.8132882151872062  1.0000
  C   C25       1.0  0.007381996750118456  0.292058839631549  0.11852554028916117  1.0000
  C   C26       1.0  0.9926180026939263  0.7079411602074425  0.8814744602348166  1.0000
  C   C27       1.0  0.8614675013260219  0.22492891020938685  0.15083377265082398  1.0000
  C   C28       1.0  0.1385324993365326  0.7750710900059892  0.8491662270606544  1.0000
  C   C29       1.0  0.7713425641672973  0.24412541257279827  0.2500635559957674  1.0000
  C   C30       1.0  0.22865743527674762  0.7558745872661932  0.7499364445282104  1.0000
  C   C31       1.0  0.17611744168391152  0.1647764252950721  0.376595600130015  1.0000
  C   C32       1.0  0.8238825578090899  0.8352235749178711  0.6234043995801265  1.0000
  C   C33       1.0  0.24440007661502663  0.37744530279549277  0.1486089494998413  1.0000
  C   C34       1.0  0.7555999240475276  0.6225546974198831  0.8513910502116371  1.0000
  C   C35       1.0  0.6893286848274592  0.3876073071659337  0.21465329550792564  1.0000
  C   C36       1.0  0.3106713146655423  0.6123926930470095  0.7853467042022158  1.0000
  N   N1        1.0  0.5166348886448824  0.8092608499050338  0.45347096887567934  1.0000
  N   N2        1.0  0.48336511079916256  0.19073914993395755  0.5465290316482985  1.0000
  N   N3        1.0  0.4650923872512897  0.7153752415787222  0.12199072167121915  1.0000
  N   N4        1.0  0.5349076122417118  0.284624758634221  0.8780092780389223  1.0000
  N   N5        1.0  0.030070220425997805  0.39487031374261583  0.33884120492889586  1.0000
  N   N6        1.0  0.9699297802365565  0.6051296864727603  0.6611587947825823  1.0000
  N   N7        1.0  0.9089390751908848  0.07532264602866821  0.180389704986026  1.0000
  N   N8        1.0  0.09106092425315998  0.9246773538103232  0.8196102955379516  1.0000
  O   O1        1.0  0.4505768100757454  0.9189272778753763  0.4484725194036014  1.0000
  O   O2        1.0  0.549423190586809  0.08107272233999979  0.5515274803078769  1.0000
  O   O3        1.0  0.5483207806690592  0.7144439510683822  0.539314714175594  1.0000
  O   O4        1.0  0.45167921882394224  0.2855560491445608  0.46068528553454746  1.0000
  O   O5        1.0  0.42023617185363  0.6930524129306177  0.0465801981016094  1.0000
  O   O6        1.0  0.5797638276393713  0.3069475872823255  0.9534198016085319  1.0000
  O   O7        1.0  0.6039204669690103  0.6958207701462363  0.14885258333838028  1.0000
  O   O8        1.0  0.3960795325239912  0.304179230066707  0.8511474163717611  1.0000
  O   O9        1.0  0.5983374729018874  0.5530760032509431  0.3977370211494697  1.0000
  O   O10       1.0  0.4016625265421575  0.44692399658804827  0.602262979374508  1.0000
  O   O11       1.0  0.3413400280938832  0.5432436821306249  0.30367966335277763  1.0000
  O   O12       1.0  0.6586599713991181  0.4567563180823184  0.6963203363573638  1.0000
  O   O13       1.0  0.05734858512089767  0.37684372682895234  0.4326185841446379  1.0000
  O   O14       1.0  0.9426514143231473  0.6231562730100392  0.5673814163793398  1.0000
  O   O15       1.0  0.9826961190753248  0.502318608632769  0.26787906761793967  1.0000
  O   O16       1.0  0.017303881587229352  0.49768139158260727  0.7321209320935385  1.0000
  O   O17       1.0  0.8624316257048984  0.0244948557601716  0.12304385403669321  1.0000
  O   O18       1.0  0.13756837378810294  0.9755051444527717  0.8769561456734483  1.0000
  O   O19       1.0  0.9903446961623876  0.015678255942102103  0.2613222557036722  1.0000
  O   O20       1.0  0.009655303330613783  0.9843217442708412  0.7386777440064691  1.0000
  O   O21       1.0  0.8487323705463862  0.16176965230026544  0.4343364152012413  1.0000
  O   O22       1.0  0.1512676300672116  0.8382303475411588  0.5656635853240733  1.0000
  O   O23       1.0  0.6586693399092993  0.1529522667685003  0.2891042389394596  1.0000
  O   O24       1.0  0.3413306608957765  0.8470477321558282  0.710895761584237  1.0000
  Cl  Cl1       1.0  0.32107448308511743  0.041751949813124904  0.07942269607934423  1.0000
  Cl  Cl2       1.0  0.6789255163589276  0.9582480500258664  0.9205773044446335  1.0000
  Cl  Cl3       1.0  0.06441361704138523  0.33543499512090963  0.9828042100007292  1.0000
  Cl  Cl4       1.0  0.9355863836211691  0.6645650050944663  0.017195789710749223  1.0000
