data_image0
_chemical_formula_structural       H104C68N4O20Cl4
_chemical_formula_sum              "H104 C68 N4 O20 Cl4"
_cell_length_a       10.708219010259386
_cell_length_b       9.94353509332747
_cell_length_c       17.10923368383135
_cell_angle_alpha    90.0
_cell_angle_beta     99.14096347146838
_cell_angle_gamma    90.0

_space_group_name_H-M_alt    "P 1"
_space_group_IT_number       1

loop_
  _space_group_symop_operation_xyz
  'x, y, z'

loop_
  _atom_site_type_symbol
  _atom_site_label
  _atom_site_symmetry_multiplicity
  _atom_site_fract_x
  _atom_site_fract_y
  _atom_site_fract_z
  _atom_site_occupancy
  H   H1        1.0  0.24541163705402055  0.28833781176313666  0.3785105178572751  1.0000
  H   H2        1.0  0.7545883633619267  0.7883378120986576  0.12148948216907546  1.0000
  H   H3        1.0  0.7545883635625713  0.7116621879022267  0.6214894825414333  1.0000
  H   H4        1.0  0.24541163710369254  0.21166218857238428  0.8785105176376354  1.0000
  H   H5        1.0  0.24896539636592097  0.23127904195191268  0.11212295474021482  1.0000
  H   H6        1.0  0.7510346031162781  0.7312790422874336  0.3878770452865843  1.0000
  H   H7        1.0  0.75103460316595  0.7687209577134506  0.8878770450669444  1.0000
  H   H8        1.0  0.24896539641559298  0.2687209573779297  0.6121229545205751  1.0000
  H   H9        1.0  0.07097087377705576  0.14540528759939925  0.3811575432348909  1.0000
  H   H10       1.0  0.9290291266388914  0.6454052869292416  0.11884245679145963  1.0000
  H   H11       1.0  0.9290291268395362  0.8545947130716426  0.6188424571638176  1.0000
  H   H12       1.0  0.07097087382672773  0.35459471273612175  0.8811575430152512  1.0000
  H   H13       1.0  0.9165007381682554  0.9901108406211131  0.3030786434257547  1.0000
  H   H14       1.0  0.08349926131394364  0.4901108402855921  0.1969213566010444  1.0000
  H   H15       1.0  0.0834992613636156  0.009889160049928894  0.6969213563814046  1.0000
  H   H16       1.0  0.9165007383689003  0.5098891593797713  0.8030786437981127  1.0000
  H   H17       1.0  0.9234317648031253  0.9546830730622302  0.15869032882313688  1.0000
  H   H18       1.0  0.07656823467907375  0.4546830727267092  0.34130967120366223  1.0000
  H   H19       1.0  0.0765682347287457  0.045316926603133176  0.8413096709840224  1.0000
  H   H20       1.0  0.9234317648527973  0.5453169269386542  0.6586903286034971  1.0000
  H   H21       1.0  0.0809081124711781  0.07931932683872767  0.09384859807516925  1.0000
  H   H22       1.0  0.919091887011021  0.5793193271742486  0.40615140195162985  1.0000
  H   H23       1.0  0.919091887060693  0.9206806728266358  0.9061514017319902  1.0000
  H   H24       1.0  0.0809081126718229  0.4206806734967933  0.593848598447527  1.0000
  H   H25       1.0  0.45607399039122926  0.24016645464473874  0.46554338497982967  1.0000
  H   H26       1.0  0.5439260090909699  0.7401664539745811  0.03445661504696944  1.0000
  H   H27       1.0  0.5439260091406418  0.7598335460263032  0.5344566148273298  1.0000
  H   H28       1.0  0.45607399059187403  0.2598335456907822  0.9655433853521876  1.0000
  H   H29       1.0  0.6408739458448601  0.4953669116434607  0.4846968754572219  1.0000
  H   H30       1.0  0.35912605363733896  0.9953669119789817  0.015303124569577237  1.0000
  H   H31       1.0  0.35912605368701095  0.5046330880219027  0.5153031243499375  1.0000
  H   H32       1.0  0.6408739458945322  0.004633088692060273  0.9846968752375821  1.0000
  H   H33       1.0  0.6657952891985427  0.9626920305660299  0.4622425065037568  1.0000
  H   H34       1.0  0.33420471121740447  0.4626920302305088  0.03775749352259376  1.0000
  H   H35       1.0  0.33420471033332844  0.0373079701050121  0.5377574933034025  1.0000
  H   H36       1.0  0.6657952892482146  0.5373079694348545  0.962242506284117  1.0000
  H   H37       1.0  0.898974100539163  0.9913970180097343  0.4762177871792145  1.0000
  H   H38       1.0  0.10102589894303612  0.49139701767421334  0.023782212847584635  1.0000
  H   H39       1.0  0.10102589899270813  0.008602982661307613  0.523782212627945  1.0000
  H   H40       1.0  0.8989741007398079  0.5086029819911501  0.9762177875515724  1.0000
  H   H41       1.0  0.9939783075984735  0.22283480263340869  0.4949559202371175  1.0000
  H   H42       1.0  0.006021691883725622  0.722834801963251  0.0050440797896816325  1.0000
  H   H43       1.0  0.00602169208437044  0.7771651980376332  0.5050440801620395  1.0000
  H   H44       1.0  0.9939783076481455  0.2771651977021123  0.9949559200174777  1.0000
  H   H45       1.0  0.8523909548716423  0.421757273508713  0.4951470714529049  1.0000
  H   H46       1.0  0.1476090455443049  0.9217572728385554  0.004852928573445788  1.0000
  H   H47       1.0  0.1476090455939769  0.5782427271623289  0.504852928353806  1.0000
  H   H48       1.0  0.8523909549213142  0.078242726826808  0.995147071233265  1.0000
  H   H49       1.0  0.4369260264629316  0.49380048784610797  0.372058824142276  1.0000
  H   H50       1.0  0.5630739739530155  0.9938004881816288  0.1279411758840746  1.0000
  H   H51       1.0  0.5630739740026875  0.5061995118192554  0.6279411756644349  1.0000
  H   H52       1.0  0.43692602666357644  0.006199511483734434  0.8720588245146338  1.0000
  H   H53       1.0  0.2843560470735134  0.566175052147985  0.36074872454453943  1.0000
  H   H54       1.0  0.7156439533424338  0.06617505181246405  0.13925127548181115  1.0000
  H   H55       1.0  0.7156439535430785  0.4338249485230569  0.6392512758541691  1.0000
  H   H56       1.0  0.28435604712318535  0.9338249478528994  0.8607487243248997  1.0000
  H   H57       1.0  0.3052940221816463  0.4268469593724417  0.2560558006281532  1.0000
  H   H58       1.0  0.6947059773005528  0.9268469597079628  0.24394419939864592  1.0000
  H   H59       1.0  0.6947059775011977  0.5731530402929216  0.7439441997710038  1.0000
  H   H60       1.0  0.3052940222313183  0.07315303995740065  0.7560558004085134  1.0000
  H   H61       1.0  0.524533708248174  0.6948831270919562  0.3146320817548358  1.0000
  H   H62       1.0  0.4754662912340251  0.19488312776211383  0.1853679182719633  1.0000
  H   H63       1.0  0.475466291283697  0.30511687257340714  0.6853679180523236  1.0000
  H   H64       1.0  0.5245337082978461  0.805116872908928  0.8146320815351962  1.0000
  H   H65       1.0  0.45977171845962306  0.7240738411866624  0.40208591467095645  1.0000
  H   H66       1.0  0.5402282819563241  0.2240738408511415  0.09791408535539409  1.0000
  H   H67       1.0  0.540228281223221  0.27592615847870094  0.5979140857282006  1.0000
  H   H68       1.0  0.45977171850929494  0.7759261588142219  0.9020859144513167  1.0000
  H   H69       1.0  0.1776778385871683  0.8995853301712093  0.286710883605915  1.0000
  H   H70       1.0  0.8223221618287789  0.39958533084136694  0.21328911642043552  1.0000
  H   H71       1.0  0.8223221618784509  0.10041466949415402  0.7132891162007957  1.0000
  H   H72       1.0  0.17767783878781307  0.600414669829675  0.7867108839782729  1.0000
  H   H73       1.0  0.22285104364765185  0.8064404193012802  0.37640132466317616  1.0000
  H   H74       1.0  0.7771489558345474  0.3064404199714378  0.12359867536362291  1.0000
  H   H75       1.0  0.7771489560351921  0.1935595803640832  0.6235986757359808  1.0000
  H   H76       1.0  0.22285104369732375  0.6935595806996041  0.8764013244435364  1.0000
  H   H77       1.0  0.17804075597769536  0.7198834059331115  0.2835809429683614  1.0000
  H   H78       1.0  0.8219592444382517  0.21988340559759056  0.21641905705798914  1.0000
  H   H79       1.0  0.8219592435541757  0.2801165947379304  0.7164190568387979  1.0000
  H   H80       1.0  0.17804075617834023  0.7801165940677728  0.7835809433407194  1.0000
  H   H81       1.0  0.3195726449495106  0.715287824022744  0.18766375984249545  1.0000
  H   H82       1.0  0.6804273554664366  0.2152878236872231  0.31233624018385514  1.0000
  H   H83       1.0  0.6804273555161084  0.2847121756426193  0.8123362399642153  1.0000
  H   H84       1.0  0.3195726442164074  0.7847121759781402  0.6876637602153018  1.0000
  H   H85       1.0  0.4600094230387219  0.8175491114276973  0.20185142273790616  1.0000
  H   H86       1.0  0.5399905762925044  0.31754911209785497  0.2981485766968953  1.0000
  H   H87       1.0  0.5399905764931492  0.18245088823766598  0.7981485770692532  1.0000
  H   H88       1.0  0.46000942323936683  0.6824508885731869  0.701851423110264  1.0000
  H   H89       1.0  0.30668639875779047  0.895860477827212  0.18451262621925416  1.0000
  H   H90       1.0  0.6933136007244086  0.39586047749169107  0.3154873738075449  1.0000
  H   H91       1.0  0.6933136007740807  0.10413952284382985  0.8154873735879052  1.0000
  H   H92       1.0  0.3066863989584353  0.6041395221736723  0.684512626591612  1.0000
  H   H93       1.0  0.5166971812707367  0.9454454629831308  0.3228955793613559  1.0000
  H   H94       1.0  0.4833028182114625  0.44544546264760987  0.17710442066544319  1.0000
  H   H95       1.0  0.4833028182611344  0.05455453668223253  0.6771044204458034  1.0000
  H   H96       1.0  0.5166971814713814  0.5545545370177535  0.8228955797337137  1.0000
  H   H97       1.0  0.4111926060611043  0.9464616046173853  0.39544419786403495  1.0000
  H   H98       1.0  0.5888073943548428  0.44646160428186427  0.10455580216231562  1.0000
  H   H99       1.0  0.5888073934707667  0.053538396053656664  0.6045558019431244  1.0000
  H   H100      1.0  0.41119260626174914  0.553538395383499  0.8954441982363929  1.0000
  H   H101      1.0  0.36586125845192546  0.025653756697773956  0.3015478966641659  1.0000
  H   H102      1.0  0.6341387410302737  0.5256537570332949  0.1984521033626332  1.0000
  H   H103      1.0  0.6341387412309185  0.9743462429675894  0.6984521037349911  1.0000
  H   H104      1.0  0.36586125850159745  0.4743462426320685  0.8015478964445262  1.0000
  C   C1        1.0  0.1615666496482223  0.19777987421391935  0.28202931403440684  1.0000
  C   C2        1.0  0.8384333507677247  0.6977798735437617  0.2179706859919437  1.0000
  C   C3        1.0  0.8384333498836489  0.8022201264571226  0.7179706857727525  1.0000
  C   C4        1.0  0.1615666496978943  0.3022201261216016  0.7820293138147671  1.0000
  C   C5        1.0  0.0718483103831578  0.13017144685983686  0.3181653732519335  1.0000
  C   C6        1.0  0.9281516890990413  0.6301714471953579  0.18183462677486556  1.0000
  C   C7        1.0  0.9281516891487133  0.8698285528055265  0.6818346265552258  1.0000
  C   C8        1.0  0.07184831043282981  0.3698285534756841  0.8181653730322939  1.0000
  C   C9        1.0  0.9854788047940655  0.04281191910165468  0.2739386011443189  1.0000
  C   C10       1.0  0.014521195621881679  0.542811918431497  0.2260613988820317  1.0000
  C   C11       1.0  0.01452119567155366  0.9571880815693872  0.7260613986623919  1.0000
  C   C12       1.0  0.9854788039099894  0.45718808123386623  0.7739386009251277  1.0000
  C   C13       1.0  0.9892147119998899  0.02336464022296268  0.19352114930181552  1.0000
  C   C14       1.0  0.010785288416057292  0.5233646405584836  0.306478850724535  1.0000
  C   C15       1.0  0.010785288465729272  0.9766353594424008  0.8064788505048952  1.0000
  C   C16       1.0  0.9892147120495618  0.47663535910687976  0.6935211490821758  1.0000
  C   C17       1.0  0.07789850226553446  0.09231399511185592  0.1567679569699822  1.0000
  C   C18       1.0  0.9221014972166646  0.5923139954473768  0.3432320430568169  1.0000
  C   C19       1.0  0.9221014974173094  0.9076860045535075  0.8432320434291749  1.0000
  C   C20       1.0  0.07789850231520641  0.40768600421798645  0.6567679567503424  1.0000
  C   C21       1.0  0.16385277560670186  0.18021698954957208  0.2003958141803389  1.0000
  C   C22       1.0  0.8361472238754973  0.680216989885093  0.2996041858464602  1.0000
  C   C23       1.0  0.8361472240761422  0.8197830101157912  0.7996041862188181  1.0000
  C   C24       1.0  0.16385277565637385  0.3197830107859489  0.7003958139606992  1.0000
  C   C25       1.0  0.6292479811507894  0.17421865702093  0.46793742176387043  1.0000
  C   C26       1.0  0.37075201818043696  0.6742186563507724  0.032062577670931014  1.0000
  C   C27       1.0  0.37075201838108174  0.8257813436501119  0.5320625780432889  1.0000
  C   C28       1.0  0.6292479813514341  0.32578134331459097  0.9679374221362282  1.0000
  C   C29       1.0  0.7080373565654351  0.0625480298668985  0.46804742294775864  1.0000
  C   C30       1.0  0.29196264385051207  0.562548029196741  0.031952577078591934  1.0000
  C   C31       1.0  0.2919626440511569  0.9374519708041433  0.5319525774509497  1.0000
  C   C32       1.0  0.7080373556813591  0.43745197046862244  0.9680474227285675  1.0000
  C   C33       1.0  0.8390507495272322  0.07975816774983664  0.47690857784680096  1.0000
  C   C34       1.0  0.16094925088871492  0.5797581680853575  0.02309142217954966  1.0000
  C   C35       1.0  0.16094925108935973  0.9202418319155268  0.5230914225519075  1.0000
  C   C36       1.0  0.8390507495769042  0.4202418315800057  0.9769085776271612  1.0000
  C   C37       1.0  0.8918531630097065  0.20822912078717504  0.4868809933256539  1.0000
  C   C38       1.0  0.10814683740624056  0.7082291211226961  0.013119006700696668  1.0000
  C   C39       1.0  0.10814683652216453  0.7917708788781883  0.5131190064815054  1.0000
  C   C40       1.0  0.8918531630593787  0.2917708795483459  0.9868809931060143  1.0000
  C   C41       1.0  0.8133227227241928  0.32057866242550603  0.48710993686366116  1.0000
  C   C42       1.0  0.18667727675800636  0.820578662761027  0.012890063163137953  1.0000
  C   C43       1.0  0.18667727680767832  0.6794213372398573  0.5128900629434981  1.0000
  C   C44       1.0  0.8133227227738647  0.1794213379100149  0.9871099366440215  1.0000
  C   C45       1.0  0.6821131993657413  0.30434887407706507  0.4770123021396402  1.0000
  C   C46       1.0  0.317886799965485  0.8043488734069074  0.022987697295161296  1.0000
  C   C47       1.0  0.31788680016612986  0.6956511265939769  0.5229876976675192  1.0000
  C   C48       1.0  0.6821131995663862  0.19565112625845588  0.9770123025119982  1.0000
  C   C49       1.0  0.37162185849694696  0.5616904307752577  0.3342761488464013  1.0000
  C   C50       1.0  0.6283781419190002  0.061690430439736786  0.1657238511799493  1.0000
  C   C51       1.0  0.6283781419686721  0.43830956889010564  0.6657238509603095  1.0000
  C   C52       1.0  0.3716218585466189  0.9383095692256266  0.8342761486267616  1.0000
  C   C53       1.0  0.43611510773654927  0.6971032007169604  0.33942724057799967  1.0000
  C   C54       1.0  0.5638848917456499  0.19710320038143947  0.16057275944879942  1.0000
  C   C55       1.0  0.5638848919462947  0.3028967999540815  0.6605727598211573  1.0000
  C   C56       1.0  0.43611510778622126  0.8028967992839239  0.8394272403583599  1.0000
  C   C57       1.0  0.2246189137534657  0.8087048252483271  0.31258336221557875  1.0000
  C   C58       1.0  0.7753810866624815  0.3087048249128061  0.18741663781077184  1.0000
  C   C59       1.0  0.7753810867121534  0.19129517542271487  0.6874166375911321  1.0000
  C   C60       1.0  0.22461891286938968  0.6912951747525573  0.8125833619963875  1.0000
  C   C61       1.0  0.36147768312005074  0.8099467930076893  0.2113379606180986  1.0000
  C   C62       1.0  0.6385223172958964  0.3099467936778469  0.2886620394082519  1.0000
  C   C63       1.0  0.6385223173455684  0.19005320665767403  0.7886620391886122  1.0000
  C   C64       1.0  0.36147768316972273  0.6900532069931951  0.7113379603984589  1.0000
  C   C65       1.0  0.4181599580347862  0.9417238539524722  0.3325220645370785  1.0000
  C   C66       1.0  0.581840041447413  0.44172385361695105  0.16747793548972065  1.0000
  C   C67       1.0  0.5818400414970848  0.05827614571289131  0.6674779352700808  1.0000
  C   C68       1.0  0.41815995808445827  0.5582761460484122  0.8325220643174388  1.0000
  N   N1        1.0  0.3591952291616734  0.8131072002175043  0.29881216504229646  1.0000
  N   N2        1.0  0.6408047712542737  0.3131071998819833  0.20118783498405407  1.0000
  N   N3        1.0  0.6408047713039456  0.18689280045353765  0.7011878347644143  1.0000
  N   N4        1.0  0.35919522921134545  0.68689279978338  0.7988121648226568  1.0000
  O   O1        1.0  0.2505765850581934  0.283292992236763  0.3208390280203663  1.0000
  O   O2        1.0  0.7494234153577538  0.7832929915666055  0.17916097200598427  1.0000
  O   O3        1.0  0.7494234155583986  0.7167070084342789  0.6791609723783423  1.0000
  O   O4        1.0  0.2505765851078654  0.21670700809875793  0.8208390278007266  1.0000
  O   O5        1.0  0.25242170764681615  0.2531187818393624  0.1692495958208746  1.0000
  O   O6        1.0  0.747578292769131  0.7531187821748833  0.33075040420547597  1.0000
  O   O7        1.0  0.747578291885055  0.7468812178260009  0.8307504039862847  1.0000
  O   O8        1.0  0.25242170769648814  0.24688121749048003  0.6692495956012349  1.0000
  O   O9        1.0  0.501260584016743  0.1555448837343449  0.4588342374417354  1.0000
  O   O10       1.0  0.4987394163992041  0.6555448830641873  0.04116576258461517  1.0000
  O   O11       1.0  0.49873941644887604  0.844455116936697  0.5411657623649754  1.0000
  O   O12       1.0  0.5012605840664149  0.34445511660117606  0.9588342372220956  1.0000
  O   O13       1.0  0.5968358113736284  0.40705054610970864  0.47484849594368517  1.0000
  O   O14       1.0  0.4031641890423186  0.9070505464452295  0.025151504082665418  1.0000
  O   O15       1.0  0.4031641890919906  0.5929494535556548  0.5251515038630257  1.0000
  O   O16       1.0  0.5968358114233004  0.0929494542258123  0.9748484957240453  1.0000
  O   O17       1.0  0.34548707660857275  0.5154319466765129  0.2545646160981862  1.0000
  O   O18       1.0  0.6545129238073744  0.015431946340991959  0.24543538392816439  1.0000
  O   O19       1.0  0.6545129238570463  0.48456805399452896  0.7454353837085246  1.0000
  O   O20       1.0  0.3454870768092176  0.9845680533243715  0.7545646164705441  1.0000
  Cl  Cl1       1.0  0.2665134958738821  0.32251705353280286  0.4973823800245689  1.0000
  Cl  Cl2       1.0  0.7334865045420651  0.8225170528626452  0.002617620001781676  1.0000
  Cl  Cl3       1.0  0.733486503657989  0.6774829471382391  0.5026176197825905  1.0000
  Cl  Cl4       1.0  0.2665134960745269  0.1774829468027181  0.9973823803969266  1.0000
