data_image0
_chemical_formula_structural       H72C92N12O12I4
_chemical_formula_sum              "H72 C92 N12 O12 I4"
_cell_length_a       14.817926111738327
_cell_length_b       9.761840145040207
_cell_length_c       15.744109044264233
_cell_angle_alpha    90.0
_cell_angle_beta     112.98982772408606
_cell_angle_gamma    90.0

_space_group_name_H-M_alt    "P 1"
_space_group_IT_number       1

loop_
  _space_group_symop_operation_xyz
  'x, y, z'

loop_
  _atom_site_type_symbol
  _atom_site_label
  _atom_site_symmetry_multiplicity
  _atom_site_fract_x
  _atom_site_fract_y
  _atom_site_fract_z
  _atom_site_occupancy
  H   H1        1.0  0.6989341584455601  0.5911946778735362  0.04383745508318246  1.0000
  H   H2        1.0  0.80106584167223  0.09119467813169495  0.45616254452136357  1.0000
  H   H3        1.0  0.3010658414457689  0.4088053216101464  0.9561625447384339  1.0000
  H   H4        1.0  0.198934158219099  0.9088053213519877  0.5438374553002528  1.0000
  H   H5        1.0  0.6727309683467073  0.7077742984257342  0.8282921102166453  1.0000
  H   H6        1.0  0.8272690316353608  0.20777429868389286  0.671707889860753  1.0000
  H   H7        1.0  0.32726903154462156  0.29222570105794843  0.17170788960497105  1.0000
  H   H8        1.0  0.1727309682559681  0.7922257007997898  0.32829210996086344  1.0000
  H   H9        1.0  0.8514690741930606  0.7770020782253609  0.2199383288235192  1.0000
  H   H10       1.0  0.6485309255416588  0.2770020784835196  0.2800616714748955  1.0000
  H   H11       1.0  0.14853092569826828  0.22299792125832174  0.7800616709980972  1.0000
  H   H12       1.0  0.35146907463981975  0.722997921000163  0.7199383290366684  1.0000
  H   H13       1.0  0.8272721569595627  0.10085974830270535  0.9355694137551909  1.0000
  H   H14       1.0  0.672727842732356  0.6008597490689437  0.56443058563226  1.0000
  H   H15       1.0  0.17272784293176635  0.8991402511809774  0.06443058606642567  1.0000
  H   H16       1.0  0.3272721571589729  0.399140251439136  0.43556941418935635  1.0000
  H   H17       1.0  0.8836852090502372  0.08076071399310471  0.10686972778042401  1.0000
  H   H18       1.0  0.6163147910675528  0.5807607147593431  0.393130271824122  1.0000
  H   H19       1.0  0.11631479084109175  0.9192392854905779  0.8931302720411923  1.0000
  H   H20       1.0  0.3836852088237761  0.41923928574873665  0.6068697279974943  1.0000
  H   H21       1.0  0.7450469360258634  0.9568981453508043  0.6470229265467692  1.0000
  H   H22       1.0  0.7549530639562049  0.45689814560896286  0.8529770735306292  1.0000
  H   H23       1.0  0.2549530638654655  0.043101854132878446  0.35297707327484734  1.0000
  H   H24       1.0  0.24504693622527374  0.5431018548991168  0.14702292698093472  1.0000
  H   H25       1.0  0.43632751469126635  0.6989138654832888  0.48073077649130735  1.0000
  H   H26       1.0  0.06367248539947291  0.19891386574144748  0.01926922376447459  1.0000
  H   H27       1.0  0.5636724852000625  0.30108613502479087  0.519269223330309  1.0000
  H   H28       1.0  0.9363275147820056  0.8010861347666322  0.9807307767470894  1.0000
  H   H29       1.0  0.7386153214998104  0.008284006785450892  0.7816908787387616  1.0000
  H   H30       1.0  0.7613846781921082  0.5082840065272922  0.7183091206486892  1.0000
  H   H31       1.0  0.2613846783915185  0.9917159937226288  0.21830912108285475  1.0000
  H   H32       1.0  0.23861532169922078  0.4917159929563904  0.2816908791729273  1.0000
  H   H33       1.0  0.6646301200298284  0.9727671319044005  0.47817048043925  1.0000
  H   H34       1.0  0.8353698794147413  0.4727671321625592  0.02182951916921721  1.0000
  H   H35       1.0  0.3353698798615006  0.027232867579282106  0.5218295193823664  1.0000
  H   H36       1.0  0.1646301204765876  0.5272328683455205  0.9781704806523993  1.0000
  H   H37       1.0  0.515646737034628  0.6879549726505318  0.6513911313468211  1.0000
  H   H38       1.0  0.9843532629474401  0.18795497290869057  0.8486088687305773  1.0000
  H   H39       1.0  0.48435326285670094  0.3120450268331508  0.3486088684747952  1.0000
  H   H40       1.0  0.015646737234038373  0.8120450275993891  0.1513911317809868  1.0000
  H   H41       1.0  0.4271815381542707  0.36095106328802595  0.8225159145884514  1.0000
  H   H42       1.0  0.07281846151059723  0.8609510630298672  0.6774840854502354  1.0000
  H   H43       1.0  0.5728184617370583  0.6390489372200537  0.17748408523316514  1.0000
  H   H44       1.0  0.9271815386708812  0.13904893747821243  0.3225159150613285  1.0000
  H   H45       1.0  0.6418661056538753  0.1198369828453262  0.038610934533169855  1.0000
  H   H46       1.0  0.8581338940808442  0.6198369825871676  0.4613890657652449  1.0000
  H   H47       1.0  0.3581338942374537  0.8801630176627534  0.9613890652884466  1.0000
  H   H48       1.0  0.1418661061006344  0.3801630168965151  0.538610934746319  1.0000
  H   H49       1.0  0.2513957257436862  0.9695436648600249  0.7398112508310392  1.0000
  H   H50       1.0  0.24860427459440193  0.4695436651181836  0.7601887492037266  1.0000
  H   H51       1.0  0.7486042741476427  0.03045633564805475  0.26018874899057737  1.0000
  H   H52       1.0  0.7513957255870766  0.5304563353898961  0.2398112513078374  1.0000
  H   H53       1.0  0.3270308033694466  0.18278162451846325  0.8243195974243375  1.0000
  H   H54       1.0  0.17296919696864158  0.6827816252847015  0.6756804026104283  1.0000
  H   H55       1.0  0.6729691965218824  0.8172183749652194  0.175680402397279  1.0000
  H   H56       1.0  0.8270308029226874  0.3172183752233781  0.32431959721118814  1.0000
  H   H57       1.0  0.6047312688382755  0.9688593789159047  0.9276622511240433  1.0000
  H   H58       1.0  0.8952687311437926  0.4688593781496663  0.5723377489533551  1.0000
  H   H59       1.0  0.3952687310530533  0.031140621592175018  0.07233774869757308  1.0000
  H   H60       1.0  0.10473126903768598  0.5311406213340164  0.4276622515582089  1.0000
  H   H61       1.0  0.5260356195778074  0.5664547204053016  0.8942659222075409  1.0000
  H   H62       1.0  0.9739643804042608  0.06645472066346032  0.6057340778698576  1.0000
  H   H63       1.0  0.47396438060367113  0.433545280102778  0.10573407830402316  1.0000
  H   H64       1.0  0.026035619487068142  0.9335452798446194  0.3942659219517588  1.0000
  H   H65       1.0  0.7305098006228272  0.3368912870050337  0.10133029788582175  1.0000
  H   H66       1.0  0.7694901997851123  0.836891286746875  0.3986697024086719  1.0000
  H   H67       1.0  0.26949019926850165  0.663108712478649  0.8986697019357947  1.0000
  H   H68       1.0  0.2305098003963662  0.16310871273680766  0.6013302981028921  1.0000
  H   H69       1.0  0.5172959320599154  0.7650406029025626  0.8408289950781509  1.0000
  H   H70       1.0  0.9827040679221528  0.2650406031607213  0.6591710049992475  1.0000
  H   H71       1.0  0.4827040681215632  0.23495939658111997  0.15917100543341317  1.0000
  H   H72       1.0  0.01729593196917613  0.7349593973473584  0.34082899482236884  1.0000
  C   C1        1.0  0.8118304432221986  0.008888369273705477  0.9667212053831821  1.0000
  C   C2        1.0  0.6881695567598696  0.5088883690155468  0.5332787946942162  1.0000
  C   C3        1.0  0.18816955695928006  0.9911116302099771  0.033278795128381895  1.0000
  C   C4        1.0  0.31183044313145925  0.49111163046813583  0.4667212051274001  1.0000
  C   C5        1.0  0.8427018583027789  0.998468561785679  0.061391768994663434  1.0000
  C   C6        1.0  0.657298141815011  0.49846856204383766  0.43860823060988263  1.0000
  C   C7        1.0  0.15729814158854996  0.0015314376980036508  0.9386082308269529  1.0000
  C   C8        1.0  0.3427018580763179  0.5015314384642421  0.5613917692117338  1.0000
  C   C9        1.0  0.6350840829642479  0.8221318901721213  0.6612236097340233  1.0000
  C   C10       1.0  0.8649159170178201  0.3221318904302799  0.838776390343375  1.0000
  C   C11       1.0  0.364915916927081  0.1778681093115614  0.33877639008759314  1.0000
  C   C12       1.0  0.1350840831636583  0.6778681090534028  0.1612236101681889  1.0000
  C   C13       1.0  0.7390446386969411  0.7798438600603252  0.9496146126961428  1.0000
  C   C14       1.0  0.7609553612851272  0.27984386031848385  0.5503853873812558  1.0000
  C   C15       1.0  0.2609553611943878  0.2201561394233575  0.050385387125473656  1.0000
  C   C16       1.0  0.23904463860620181  0.7201561391651988  0.4496146124403607  1.0000
  C   C17       1.0  0.7608158413105341  0.8997504414639054  0.9089688150120815  1.0000
  C   C18       1.0  0.7391841586715341  0.399750441722064  0.5910311850653169  1.0000
  C   C19       1.0  0.23918415858079478  0.10024955904417437  0.09103118480953494  1.0000
  C   C20       1.0  0.2608158415099445  0.6002495587860157  0.4089688154462471  1.0000
  C   C21       1.0  0.6769226732078756  0.9012570139729289  0.6113954531454548  1.0000
  C   C22       1.0  0.8230773267741925  0.4012570142310875  0.8886045469319436  1.0000
  C   C23       1.0  0.32307732697360286  0.09874298653515083  0.3886045473661091  1.0000
  C   C24       1.0  0.17692267311713636  0.5987429862769922  0.11139545288967288  1.0000
  C   C25       1.0  0.5460153763909043  0.8356094505547144  0.4692141862457351  1.0000
  C   C26       1.0  0.9539846237268856  0.33560945081287297  0.03078581335881095  1.0000
  C   C27       1.0  0.45398462417364477  0.16439054892896837  0.5307858135719601  1.0000
  C   C28       1.0  0.04601537616444326  0.6643905486708097  0.9692141864628054  1.0000
  C   C29       1.0  0.8226390056933873  0.879343963070463  0.1016985319176852  1.0000
  C   C30       1.0  0.6773609944244027  0.37934396332862175  0.3983014676868608  1.0000
  C   C31       1.0  0.1773609941979416  0.12065603641321959  0.8983014679039312  1.0000
  C   C32       1.0  0.32263900546692625  0.6206560361550609  0.6016985321347555  1.0000
  C   C33       1.0  0.5034341411429772  0.7558716123567099  0.5171971327247233  1.0000
  C   C34       1.0  0.9965658588390909  0.2558716126148685  0.9828028673526751  1.0000
  C   C35       1.0  0.4965658587483516  0.2441283871269728  0.4828028670968931  1.0000
  C   C36       1.0  0.0034341410522380103  0.7441283878932112  0.017197132468941344  1.0000
  C   C37       1.0  0.7255428290505357  0.9113433295176498  0.8106493191784052  1.0000
  C   C38       1.0  0.7744571709315324  0.4113433287514114  0.6893506808989931  1.0000
  C   C39       1.0  0.27445717084079324  0.08865667099042988  0.18935068064321117  1.0000
  C   C40       1.0  0.22554282924994606  0.5886566707322712  0.31064931961257086  1.0000
  C   C41       1.0  0.7678500845750116  0.7706729620872125  0.04575447861642391  1.0000
  C   C42       1.0  0.7321499155427783  0.2706729623453711  0.45424552098812215  1.0000
  C   C43       1.0  0.23214991531631732  0.22932703739647026  0.9542455212051926  1.0000
  C   C44       1.0  0.2678500843485506  0.7293270381627086  0.5457544788334943  1.0000
  C   C45       1.0  0.6322329707730282  0.9091453873590802  0.5156227506785084  1.0000
  C   C46       1.0  0.8677670292090399  0.40914538659284194  0.98437724939889  1.0000
  C   C47       1.0  0.3677670294084503  0.09085461314899937  0.48437724983305563  1.0000
  C   C48       1.0  0.13223297068228898  0.5908546128908407  0.015622750422726405  1.0000
  C   C49       1.0  0.5483863148501334  0.7491361445531927  0.6129488154088678  1.0000
  C   C50       1.0  0.9516136851319347  0.24913614481135135  0.8870511846685307  1.0000
  C   C51       1.0  0.451613685331345  0.25086385493049  0.3870511851026962  1.0000
  C   C52       1.0  0.04838631475939427  0.7508638556967283  0.11294881515308576  1.0000
  C   C53       1.0  0.49299619475022094  0.3501486440275981  0.8852624096951685  1.0000
  C   C54       1.0  0.007003805587867176  0.8501486437694394  0.6147375903395972  1.0000
  C   C55       1.0  0.5070038054312577  0.6498513564804815  0.1147375908163955  1.0000
  C   C56       1.0  0.9929961943034618  0.14985135673864028  0.3852624094820193  1.0000
  C   C57       1.0  0.6127045063565764  0.2164972370576854  0.004413146431013305  1.0000
  C   C58       1.0  0.887295493378143  0.7164972367995268  0.4955868538674015  1.0000
  C   C59       1.0  0.3872954935347525  0.7835027634503943  0.995586853390603  1.0000
  C   C60       1.0  0.1127045068033355  0.2835027626841559  0.5044131466441625  1.0000
  C   C61       1.0  0.3295875356034984  0.9733774328222071  0.7824167272373677  1.0000
  C   C62       1.0  0.1704124647345896  0.4733774320559689  0.717583272797398  1.0000
  C   C63       1.0  0.6704124649610506  0.026622567685872466  0.2175832725803276  1.0000
  C   C64       1.0  0.8295875351567393  0.5266225674277139  0.2824167270242185  1.0000
  C   C65       1.0  0.4734653809463921  0.09505720399155113  0.8820788859699027  1.0000
  C   C66       1.0  0.026534619391695994  0.5950572037333924  0.617921114064863  1.0000
  C   C67       1.0  0.5265346199083066  0.9049427965165286  0.11792111453774021  1.0000
  C   C68       1.0  0.973465380499633  0.4049427957502902  0.3820788857567535  1.0000
  C   C69       1.0  0.37228134426707293  0.09288220627754046  0.8290317608569775  1.0000
  C   C70       1.0  0.127718655397795  0.5928822060193818  0.6709682391817093  1.0000
  C   C71       1.0  0.627718655624256  0.9071177932061422  0.1709682389646389  1.0000
  C   C72       1.0  0.8722813444935339  0.4071177934643009  0.32903176063990713  1.0000
  C   C73       1.0  0.5259521118041398  0.9734835460124058  0.8884716507815327  1.0000
  C   C74       1.0  0.9740478881779283  0.4734835452461676  0.6115283492958659  1.0000
  C   C75       1.0  0.4740478880871892  0.02651645449567376  0.11152834904008384  1.0000
  C   C76       1.0  0.025952111713400467  0.5265164542375151  0.38847165052575056  1.0000
  C   C77       1.0  0.5255757735552747  0.2214386896202444  0.925178919366353  1.0000
  C   C78       1.0  0.9744242264267935  0.7214386893620858  0.5748210807110455  1.0000
  C   C79       1.0  0.4744242263360543  0.7785613108878353  0.07482108045526355  1.0000
  C   C80       1.0  0.02557577346453541  0.278561311145994  0.4251789191105709  1.0000
  C   C81       1.0  0.5481936611991224  0.4655765841760033  0.9247980690627959  1.0000
  C   C82       1.0  0.9518063387829458  0.9655765839178445  0.5752019310146025  1.0000
  C   C83       1.0  0.4518063386922066  0.5344234163320765  0.07520193075882049  1.0000
  C   C84       1.0  0.04819366110838311  0.03442341659023509  0.424798068807014  1.0000
  C   C85       1.0  0.6624935069566379  0.3375052050687345  0.03977217125107632  1.0000
  C   C86       1.0  0.8375064931611521  0.8375052048105758  0.46022782835346976  1.0000
  C   C87       1.0  0.337506492934691  0.6624947954393452  0.96022782857054  1.0000
  C   C88       1.0  0.16249350673017685  0.16249479467310685  0.5397721714681466  1.0000
  C   C89       1.0  0.4772007637713094  0.8592011593491888  0.8393389589183803  1.0000
  C   C90       1.0  0.022799236566778597  0.3592011585829505  0.6606610411163852  1.0000
  C   C91       1.0  0.5227992364101691  0.14079884115889083  0.16066104159318365  1.0000
  C   C92       1.0  0.9772007633245503  0.6407988409007321  0.33933895870523106  1.0000
  N   N1        1.0  0.6750306607413192  0.8121727402008533  0.757352572537638  1.0000
  N   N2        1.0  0.824969339240749  0.3121727394346149  0.7426474275397604  1.0000
  N   N3        1.0  0.3249693391500097  0.18782726030722643  0.2426474272839785  1.0000
  N   N4        1.0  0.17503066094072953  0.6878272600490678  0.2573525729718035  1.0000
  N   N5        1.0  0.38100695492487674  0.8585468636523631  0.7862923077216019  1.0000
  N   N6        1.0  0.11899304473999117  0.3585468639105218  0.713707692317085  1.0000
  N   N7        1.0  0.6189930449664521  0.1414531358313195  0.21370769210001456  1.0000
  N   N8        1.0  0.8810069551513378  0.6414531355731609  0.2862923075045315  1.0000
  N   N9        1.0  0.6313978943440638  0.4600761908892641  0.000724554192565985  1.0000
  N   N10       1.0  0.8686021057737262  0.9600761906311054  0.4992754454119801  1.0000
  N   N11       1.0  0.36860210554726514  0.5399238096188156  0.9992754456290505  1.0000
  N   N12       1.0  0.13139789411760275  0.039923809876974255  0.5007245544096364  1.0000
  O   O1        1.0  0.7464353338462689  0.6619760602495897  0.08805445281461098  1.0000
  O   O2        1.0  0.7535646665616705  0.1619760605077484  0.4119455474798826  1.0000
  O   O3        1.0  0.2535646663352095  0.33802394025849  0.911945547696953  1.0000
  O   O4        1.0  0.24643533332965836  0.8380239400003313  0.5880544523417338  1.0000
  O   O5        1.0  0.6881479077619191  0.674990071758941  0.8963397249036282  1.0000
  O   O6        1.0  0.811852092220149  0.17499007201709962  0.6036602751737703  1.0000
  O   O7        1.0  0.3118520924195593  0.3250099287491387  0.10366027560793588  1.0000
  O   O8        1.0  0.18814790767117992  0.8250099284909801  0.3963397246478461  1.0000
  O   O9        1.0  0.8563645698044281  0.8730678543563567  0.19453152614667782  1.0000
  O   O10       1.0  0.6436354306035114  0.3730678535901184  0.30546847414781586  1.0000
  O   O11       1.0  0.14363543037705037  0.12693214615172296  0.8054684743648861  1.0000
  O   O12       1.0  0.3563645692878175  0.6269321458935643  0.6945315256738006  1.0000
  I   I1        1.0  0.4819386372092436  0.8400968237701275  0.32413453090957944  1.0000
  I   I2        1.0  0.01806136259134599  0.3400968240282863  0.17586546865625502  1.0000
  I   I3        1.0  0.5180613626820852  0.15990317571355506  0.675865468912037  1.0000
  I   I4        1.0  0.9819386372999831  0.6599031754553965  0.8241345311653615  1.0000
