data_image0
_chemical_formula_structural       H66B4C70N4
_chemical_formula_sum              "H66 B4 C70 N4"
_cell_length_a       9.546764802497101
_cell_length_b       11.866719285442985
_cell_length_c       12.869597795982104
_cell_angle_alpha    74.5828547285729
_cell_angle_beta     81.02005149005865
_cell_angle_gamma    71.56345624644302

_space_group_name_H-M_alt    "P 1"
_space_group_IT_number       1

loop_
  _space_group_symop_operation_xyz
  'x, y, z'

loop_
  _atom_site_type_symbol
  _atom_site_label
  _atom_site_symmetry_multiplicity
  _atom_site_fract_x
  _atom_site_fract_y
  _atom_site_fract_z
  _atom_site_occupancy
  H   H1        1.0  0.4868325646140765  0.5632237976177333  0.8640992461089025  1.0000
  H   H2        1.0  0.513167435183402  0.4367762021287272  0.13590075388252257  1.0000
  H   H3        1.0  0.36373680197087854  0.7076491979469897  0.8776689899853889  1.0000
  H   H4        1.0  0.6362631988727159  0.2923508018030734  0.12233101000572641  1.0000
  H   H5        1.0  0.4156019099343763  0.675276971014414  0.7471032501238459  1.0000
  H   H6        1.0  0.5843980909092182  0.32472302873564907  0.25289674986726934  1.0000
  H   H7        1.0  0.19593063164900792  0.26433340014554396  0.7565859162855514  1.0000
  H   H8        1.0  0.8040693677950402  0.7356666004889759  0.24341408370670914  1.0000
  H   H9        1.0  0.16079131937972  0.27216720622043095  0.8940441976608823  1.0000
  H   H10       1.0  0.8392086804177586  0.7278327935260295  0.10595580233054283  1.0000
  H   H11       1.0  0.2673914709274173  0.3623906784449845  0.8029639897882309  1.0000
  H   H12       1.0  0.732608528516631  0.6376093221895353  0.19703601020402953  1.0000
  H   H13       1.0  0.8988915698197436  0.31441757546983434  0.8567029809926827  1.0000
  H   H14       1.0  0.10110842997773492  0.6855824242766262  0.14329701899874242  1.0000
  H   H15       1.0  0.931744022389672  0.33637506444469684  0.7143714814717746  1.0000
  H   H16       1.0  0.06825597740780637  0.6636249353017638  0.2856285185196505  1.0000
  H   H17       1.0  0.8113027056688324  0.45744575604839915  0.7710839022986454  1.0000
  H   H18       1.0  0.18869729482133196  0.542554244589723  0.22891609769330518  1.0000
  H   H19       1.0  0.21268934925660893  0.5817325007203727  0.009062950927948269  1.0000
  H   H20       1.0  0.7873106501874393  0.41826749991414697  0.9909370490643123  1.0000
  H   H21       1.0  0.3261816077713218  0.44219962732520834  0.9785808438800729  1.0000
  H   H22       1.0  0.6738183930722726  0.5578003724248546  0.02141915611104231  1.0000
  H   H23       1.0  0.13394174216870341  0.49250513569008825  0.9567404037045155  1.0000
  H   H24       1.0  0.8660582572753449  0.5074948649444315  0.043259596287745034  1.0000
  H   H25       1.0  0.08474821981031973  0.8259596009516245  0.7685580344332055  1.0000
  H   H26       1.0  0.9152517799871588  0.1740403987948361  0.23144196555821978  1.0000
  H   H27       1.0  0.024202125539952015  0.05127765879538034  0.7237649971716654  1.0000
  H   H28       1.0  0.9757978742575264  0.9487223409510802  0.27623500281975977  1.0000
  H   H29       1.0  0.09098082629002077  0.16127770613283396  0.5373246477355352  1.0000
  H   H30       1.0  0.9090191731540274  0.8387222945016858  0.4626753522567253  1.0000
  H   H31       1.0  0.20929515381211053  0.04794820795160126  0.39865521214881205  1.0000
  H   H32       1.0  0.7907048459853678  0.9520517917948593  0.6013447878426131  1.0000
  H   H33       1.0  0.3101600820891647  0.9540376540417055  0.288445475761627  1.0000
  H   H34       1.0  0.6898399177083137  0.045962345704755124  0.7115545242297981  1.0000
  H   H35       1.0  0.43174547717917006  0.8306187354114879  0.15713319095887848  1.0000
  H   H36       1.0  0.5682545236644244  0.16938126433857503  0.8428668090322369  1.0000
  H   H37       1.0  0.47875785905488505  0.6037448327207594  0.20826097596518847  1.0000
  H   H38       1.0  0.5212421407425932  0.39625516702570124  0.7917390240262366  1.0000
  H   H39       1.0  0.4057376328824547  0.5029485417932861  0.3954006028514511  1.0000
  H   H40       1.0  0.5942623665615935  0.4970514588412337  0.6045993971408095  1.0000
  H   H41       1.0  0.3080672434492233  0.5125407517694036  0.5763537352555382  1.0000
  H   H42       1.0  0.6919327563482552  0.4874592479770569  0.4236462647358869  1.0000
  H   H43       1.0  0.9811610116974973  0.5605136695658809  0.5718686941813588  1.0000
  H   H44       1.0  0.018838989146097253  0.439486330184182  0.42813130580975645  1.0000
  H   H45       1.0  0.8570390806514292  0.6063927234925709  0.4045595273722502  1.0000
  H   H46       1.0  0.1429609201921652  0.393607276257492  0.595440472618865  1.0000
  H   H47       1.0  0.6051901417372969  0.7568762581480598  0.3847568593936478  1.0000
  H   H48       1.0  0.39480985806018154  0.24312374159840078  0.6152431405977774  1.0000
  H   H49       1.0  0.48638285194947584  0.8640361786065661  0.5275117808630113  1.0000
  H   H50       1.0  0.5136171474945724  0.13596382202795362  0.47248821912924927  1.0000
  H   H51       1.0  0.39238433098235026  0.9496343052151621  0.6435464714734693  1.0000
  H   H52       1.0  0.607615669861244  0.05036569453490097  0.35645352851764595  1.0000
  H   H53       1.0  0.27672834064547785  0.04162155285875815  0.795873691843529  1.0000
  H   H54       1.0  0.7232716601981165  0.9583784468913048  0.2041263081475863  1.0000
  H   H55       1.0  0.405182364769298  0.9840904715222009  0.9647374887742881  1.0000
  H   H56       1.0  0.5948176360742966  0.01590952822786201  0.035262511216827136  1.0000
  H   H57       1.0  0.6557204059221478  0.832887945941175  0.9777363728532227  1.0000
  H   H58       1.0  0.34427959352190046  0.16711205469334478  0.022263627139037866  1.0000
  H   H59       1.0  0.8621907713089949  0.6946986156558967  0.9010734396698642  1.0000
  H   H60       1.0  0.13780922813505334  0.3053013849786231  0.0989265603223963  1.0000
  H   H61       1.0  0.22342736726634133  0.8337888131532822  0.06534485595340242  1.0000
  H   H62       1.0  0.776572633577253  0.16621118659678066  0.9346551440377129  1.0000
  H   H63       1.0  0.1614912019497839  0.031778926517655806  0.11736798395403865  1.0000
  H   H64       1.0  0.8385087978476944  0.9682210732288048  0.8826320160373864  1.0000
  H   H65       1.0  0.9379371469867785  0.1987805257876052  0.051897826238290846  1.0000
  H   H66       1.0  0.06206285385681579  0.8012194739624579  0.9481021737528244  1.0000
  B   B1        1.0  0.18058065394924508  0.601790803736142  0.7556490233776271  1.0000
  B   B2        1.0  0.8194193454948032  0.3982091968983778  0.2443509766146335  1.0000
  B   B3        1.0  0.030427739837222714  0.5504475949562209  0.7667595550164189  1.0000
  B   B4        1.0  0.9695722599602558  0.44955240479023967  0.23324044497500623  1.0000
  C   C1        1.0  0.3885451608792522  0.6361520931139354  0.8319922436044871  1.0000
  C   C2        1.0  0.6114548389182262  0.36384790663252525  0.16800775638693813  1.0000
  C   C3        1.0  0.17267238498573237  0.32673148373677025  0.8109775326601887  1.0000
  C   C4        1.0  0.8273276148117462  0.6732685160096903  0.18902246733123648  1.0000
  C   C5        1.0  0.9132075120370285  0.38191450706915386  0.7817599859521612  1.0000
  C   C6        1.0  0.0867924888065659  0.618085492680909  0.21824001403895407  1.0000
  C   C7        1.0  0.23227773394831155  0.5228664987095153  0.9518321353258219  1.0000
  C   C8        1.0  0.7677222658491668  0.47713350103694524  0.048167864665603174  1.0000
  C   C9        1.0  0.21964408205548247  0.6740814451555848  0.6379737022665171  1.0000
  C   C10       1.0  0.7803559177419959  0.3259185545908758  0.36202629772490813  1.0000
  C   C11       1.0  0.18413434247454147  0.8058498814885019  0.6095301191438498  1.0000
  C   C12       1.0  0.8158656573229368  0.19415011825795878  0.39046988084757533  1.0000
  C   C13       1.0  0.11331910448541627  0.8745959007392481  0.6874822842072504  1.0000
  C   C14       1.0  0.886680894958632  0.1254040998952717  0.3125177157850101  1.0000
  C   C15       1.0  0.07989467954214462  0.00037627120549711305  0.6626216514374191  1.0000
  C   C16       1.0  0.9201053213014496  0.9996237285445659  0.3373783485536961  1.0000
  C   C17       1.0  0.1172095096703658  0.06219376792780942  0.5578443149463584  1.0000
  C   C18       1.0  0.8827904901271127  0.9378062318186511  0.4421556850450668  1.0000
  C   C19       1.0  0.1848194238064119  0.9975636837331393  0.47966405079814556  1.0000
  C   C20       1.0  0.8151805759910665  0.0024363160133211615  0.5203359491932796  1.0000
  C   C21       1.0  0.21894984528262193  0.8691309631500833  0.5022263757067941  1.0000
  C   C22       1.0  0.7810501552075424  0.13086903748803874  0.4977736242851566  1.0000
  C   C23       1.0  0.28749738420192195  0.8006049042082821  0.4203019784271392  1.0000
  C   C24       1.0  0.7125026166416724  0.1993950955417809  0.5796980215639761  1.0000
  C   C25       1.0  0.32897477072344666  0.8555440539887943  0.3131012364318372  1.0000
  C   C26       1.0  0.6710252301201477  0.14445594576126872  0.686898763559278  1.0000
  C   C27       1.0  0.3974570142344297  0.7858251515795591  0.2383284740300589  1.0000
  C   C28       1.0  0.6025429866091646  0.21417484817050383  0.7616715259610565  1.0000
  C   C29       1.0  0.42499679157102305  0.6581192474249351  0.26730358755399164  1.0000
  C   C30       1.0  0.5750032082264553  0.34188075232152537  0.7326964124374336  1.0000
  C   C31       1.0  0.3846749660829194  0.601879793399267  0.37137524660732657  1.0000
  C   C32       1.0  0.615325033714559  0.3981202063471935  0.6286247533840987  1.0000
  C   C33       1.0  0.3171926042841918  0.671019720612868  0.44954859300552774  1.0000
  C   C34       1.0  0.6828073955132866  0.32898027913359257  0.5504514069858975  1.0000
  C   C35       1.0  0.28146472285171176  0.6118778823478731  0.5581147559927906  1.0000
  C   C36       1.0  0.7185352769457667  0.38812211739858743  0.4418852439986346  1.0000
  C   C37       1.0  0.8760054207413343  0.6513873654043808  0.7476860159893959  1.0000
  C   C38       1.0  0.12399457870271387  0.3486126352301391  0.25231398400286464  1.0000
  C   C39       1.0  0.802709283493582  0.6821963049943929  0.6493670778985774  1.0000
  C   C40       1.0  0.19729071595046635  0.3178036956401269  0.350632922093683  1.0000
  C   C41       1.0  0.8709687956472467  0.6249721367969858  0.5634642223487075  1.0000
  C   C42       1.0  0.12903120415023173  0.3750278629494747  0.43653577764271767  1.0000
  C   C43       1.0  0.802065199404633  0.6513398971385391  0.46956794929593043  1.0000
  C   C44       1.0  0.19793480039284558  0.34866010260792146  0.5304320506954947  1.0000
  C   C45       1.0  0.6613571712101799  0.7366592779607781  0.45787433077621753  1.0000
  C   C46       1.0  0.33864282927998435  0.26334072267734404  0.5421256692157331  1.0000
  C   C47       1.0  0.5938509014846399  0.7965115808728395  0.5392574728941013  1.0000
  C   C48       1.0  0.40614909831283846  0.20348841887362099  0.46074252709732383  1.0000
  C   C49       1.0  0.6614397052777929  0.7716986227602408  0.6361825835363398  1.0000
  C   C50       1.0  0.33856029416625527  0.22830137787427893  0.36381741645592075  1.0000
  C   C51       1.0  0.5917656920954871  0.8339747000906296  0.722041920293829  1.0000
  C   C52       1.0  0.4082343077019914  0.16602529965583102  0.27795807969759617  1.0000
  C   C53       1.0  0.4520083035442039  0.9228379072334845  0.7158774680410376  1.0000
  C   C54       1.0  0.5479916969459604  0.07716209340463766  0.284122531950913  1.0000
  C   C55       1.0  0.38639708017214874  0.975887829544405  0.8017444829371155  1.0000
  C   C56       1.0  0.6136029196253295  0.024112170202055673  0.19825551705430963  1.0000
  C   C57       1.0  0.45896461532945454  0.9433864314396576  0.8970632545767407  1.0000
  C   C58       1.0  0.5410353844680238  0.05661356830680306  0.10293674541468432  1.0000
  C   C59       1.0  0.5975744274732739  0.8590178770302648  0.9044170065312994  1.0000
  C   C60       1.0  0.4024255719707742  0.14098212360425502  0.0955829934609612  1.0000
  C   C61       1.0  0.6665726796540433  0.8028644194888646  0.8179757959920619  1.0000
  C   C62       1.0  0.3334273211895513  0.19713558026119823  0.18202420399905345  1.0000
  C   C63       1.0  0.8084358795612514  0.7137731056815823  0.8265972825626395  1.0000
  C   C64       1.0  0.19156412023622696  0.2862268940648781  0.17340271742878566  1.0000
  C   C65       1.0  0.1254418829180325  0.9065443623789438  0.03649163142826365  1.0000
  C   C66       1.0  0.8745581168794462  0.09345563736751691  0.9635083685631615  1.0000
  C   C67       1.0  0.0909880618049277  0.018118264727429934  0.06557397473602099  1.0000
  C   C68       1.0  0.9090119379925506  0.9818817350190308  0.9344260252554042  1.0000
  C   C69       1.0  0.965369141050623  0.11172878223691078  0.028871622233839864  1.0000
  C   C70       1.0  0.034630858746855425  0.8882712175095498  0.9711283777575854  1.0000
  N   N1        1.0  0.26329445803324036  0.5876611062616804  0.8419155963647313  1.0000
  N   N2        1.0  0.7367055414108078  0.4123388943728393  0.15808440362752912  1.0000
  N   N3        1.0  0.037983695473476825  0.4263722739782751  0.7854001128279171  1.0000
  N   N4        1.0  0.9620163053701177  0.5736277257717878  0.2145998871631982  1.0000
