data_image0
_chemical_formula_structural       H30C40N6O12Cl4
_chemical_formula_sum              "H30 C40 N6 O12 Cl4"
_cell_length_a       7.057357248815917
_cell_length_b       12.672808075518134
_cell_length_c       12.61880456994035
_cell_angle_alpha    62.54533511436602
_cell_angle_beta     76.98482937188984
_cell_angle_gamma    74.05169505352032

_space_group_name_H-M_alt    "P 1"
_space_group_IT_number       1

loop_
  _space_group_symop_operation_xyz
  'x, y, z'

loop_
  _atom_site_type_symbol
  _atom_site_label
  _atom_site_symmetry_multiplicity
  _atom_site_fract_x
  _atom_site_fract_y
  _atom_site_fract_z
  _atom_site_occupancy
  H   H1        1.0  0.9416906482013119  0.8647172812637149  0.8888381485480468  1.0000
  H   H2        1.0  0.05830935205991215  0.13528271953031903  0.11116185106378998  1.0000
  H   H3        1.0  0.7258803946993533  0.11503350028758846  0.625905676311907  1.0000
  H   H4        1.0  0.27411960435891286  0.8849664993070463  0.3740943241933323  1.0000
  H   H5        1.0  0.8246887336405875  0.04487749008972785  0.9360107071144941  1.0000
  H   H6        1.0  0.1753112650218064  0.9551225103256159  0.06398929339063616  1.0000
  H   H7        1.0  0.7120593014666072  0.37330414196892014  0.2554071617677975  1.0000
  H   H8        1.0  0.28794069777210335  0.6266958580121014  0.744592837838399  1.0000
  H   H9        1.0  0.7549823758755458  0.20646472199242907  0.1967491430272928  1.0000
  H   H10       1.0  0.24501762420523365  0.7935352784152183  0.8032508574835868  1.0000
  H   H11       1.0  0.6619023447650538  0.6450423739662923  0.23292846881628285  1.0000
  H   H12       1.0  0.3380976558920426  0.3549576260070324  0.767071530795663  1.0000
  H   H13       1.0  0.5409600066835567  0.8235157236693718  0.2789963477019028  1.0000
  H   H14       1.0  0.459039992555154  0.17648427631164984  0.7210036519042936  1.0000
  H   H15       1.0  0.6923795550509309  0.7237382795925942  0.819363419383668  1.0000
  H   H16       1.0  0.3076204456061655  0.27626172038073055  0.18063658022827772  1.0000
  H   H17       1.0  0.7893764775473712  0.43518849195735826  0.6384950817697878  1.0000
  H   H18       1.0  0.21062352151089495  0.5648115076372764  0.36150491873545154  1.0000
  H   H19       1.0  0.6515346969039759  0.5114932603990617  0.9491949110462605  1.0000
  H   H20       1.0  0.3484653021542903  0.4885067391955729  0.05080508945897873  1.0000
  H   H21       1.0  0.638724527983765  0.1250902470541954  0.0735799299612599  1.0000
  H   H22       1.0  0.36127547107450103  0.8749097525404392  0.9264200705439793  1.0000
  H   H23       1.0  0.7853098437579047  0.8441934702467052  0.485937902732775  1.0000
  H   H24       1.0  0.21469015548080603  0.15580652973431638  0.5140620968734214  1.0000
  H   H25       1.0  0.7383225722312561  0.006073894444823856  0.26144794248896497  1.0000
  H   H26       1.0  0.2616774284258404  0.9939261055285009  0.7385520571229808  1.0000
  H   H27       1.0  0.8987070235202195  0.46639159576926703  0.08332051512598973  1.0000
  H   H28       1.0  0.1012929769564325  0.533608403817671  0.9166794853849989  1.0000
  H   H29       1.0  0.4837999584331551  0.04935958413165484  0.19048812298156942  1.0000
  H   H30       1.0  0.5162000418280688  0.9506404166623793  0.8095118766302676  1.0000
  C   C1        1.0  0.8124882689841768  0.7433298849172507  0.058283183398103657  1.0000
  C   C2        1.0  0.18751173007408953  0.25667011467738376  0.9417168171071356  1.0000
  C   C3        1.0  0.7566809443208438  0.7029456340326509  0.6545007209628616  1.0000
  C   C4        1.0  0.24331905615580818  0.29705436555428705  0.345499279548127  1.0000
  C   C5        1.0  0.7494331689129887  0.9178680085863434  0.6045101133235232  1.0000
  C   C6        1.0  0.25056683156366316  0.08213199100059455  0.39548988718746547  1.0000
  C   C7        1.0  0.748387493130685  0.0394539105205571  0.5012487767545037  1.0000
  C   C8        1.0  0.2516125069500946  0.96054608988709  0.4987512237563759  1.0000
  C   C9        1.0  0.891107532248404  0.6381843347045442  0.03055365843600306  1.0000
  C   C10       1.0  0.10889246840869254  0.3618156652687806  0.9694463411759426  1.0000
  C   C11       1.0  0.7577626714270644  0.06565865353697647  0.3782545303379463  1.0000
  C   C12       1.0  0.2422373290495874  0.9343413460499614  0.6217454701730423  1.0000
  C   C13       1.0  0.6788011147425711  0.9451492969840019  0.11159682911252582  1.0000
  C   C14       1.0  0.32119888431569493  0.05485070261063279  0.8884031713927135  1.0000
  C   C15       1.0  0.8574823612071039  0.8566491683326214  0.9750144180106408  1.0000
  C   C16       1.0  0.14251763905412015  0.14335083246141256  0.024985581601195996  1.0000
  C   C17       1.0  0.7284264251084496  0.13611051311070227  0.531778113222374  1.0000
  C   C18       1.0  0.271573575548647  0.8638894868626226  0.4682218863895718  1.0000
  C   C19       1.0  0.7919109566508661  0.9566584576253393  0.000909471118465468  1.0000
  C   C20       1.0  0.2080890425878447  0.043341542355682064  0.999090528487731  1.0000
  C   C21       1.0  0.7228402735400541  0.28014137016399987  0.3233289222537282  1.0000
  C   C22       1.0  0.2771597256986565  0.7198586298170216  0.6766710773524682  1.0000
  C   C23       1.0  0.7452269477470113  0.18612752929423004  0.2912660540522537  1.0000
  C   C24       1.0  0.25477305131125494  0.8138724703004047  0.7087339464529856  1.0000
  C   C25       1.0  0.7834044098236436  0.6186642058421972  0.6048393195046186  1.0000
  C   C26       1.0  0.21659559065300837  0.38133579374474086  0.3951606810063701  1.0000
  C   C27       1.0  0.7139040535794986  0.25450904644281125  0.444327930306672  1.0000
  C   C28       1.0  0.2860959468971533  0.7454909531441267  0.5556720702043166  1.0000
  C   C29       1.0  0.696433045920531  0.7327221061625655  0.16765391881636643  1.0000
  C   C30       1.0  0.30356695473656525  0.2672778938107594  0.8323460807955794  1.0000
  C   C31       1.0  0.6295106131645103  0.8325764911437181  0.19366295084144786  1.0000
  C   C32       1.0  0.37048938749258625  0.16742350882960652  0.8063370487704978  1.0000
  C   C33       1.0  0.7114300126250568  0.660873883988451  0.7802864975460085  1.0000
  C   C34       1.0  0.2885699862177817  0.3391261168132797  0.21971350206007895  1.0000
  C   C35       1.0  0.7673318995246755  0.49913076654433375  0.6770866009131801  1.0000
  C   C36       1.0  0.2326681007365485  0.5008692342497003  0.32291339869865676  1.0000
  C   C37       1.0  0.7193081911062186  0.46185467388076473  0.8009249582629877  1.0000
  C   C38       1.0  0.2806918081324922  0.5381453261002568  0.19907504134320866  1.0000
  C   C39       1.0  0.6893127192292192  0.5423581123770567  0.8527343606887726  1.0000
  C   C40       1.0  0.3106872814278774  0.4576418875962682  0.14726563892317304  1.0000
  N   N1        1.0  0.76880327022138  0.8218296089794072  0.5766892961216329  1.0000
  N   N2        1.0  0.23119673025527196  0.17817039060753093  0.4233107043893556  1.0000
  N   N3        1.0  0.6229601960903417  0.042582298923170905  0.14349019917983646  1.0000
  N   N4        1.0  0.3770398043863101  0.9574177006637669  0.8565098013311523  1.0000
  N   N5        1.0  0.7027611062095195  0.33660423231216363  0.8755181167612105  1.0000
  N   N6        1.0  0.2972388928487467  0.6633957672824708  0.12448188374402873  1.0000
  O   O1        1.0  0.7812421257341933  0.9745604716908376  0.3454294937561175  1.0000
  O   O2        1.0  0.2187578735045174  0.025439528290183953  0.6545705058500788  1.0000
  O   O3        1.0  0.825317083704716  0.5376946469027627  0.10679491616069742  1.0000
  O   O4        1.0  0.17468291535355032  0.46230535269187195  0.8932050843445417  1.0000
  O   O5        1.0  0.015019927399611974  0.642933353841052  0.9406509812056455  1.0000
  O   O6        1.0  0.9849800718390985  0.3570666461399696  0.05934901840055091  1.0000
  O   O7        1.0  0.7310536254657146  0.9054538653743014  0.7098148251660981  1.0000
  O   O8        1.0  0.2689463747955094  0.0945461354197328  0.2901851744457388  1.0000
  O   O9        1.0  0.6308406709403371  0.3078310131533995  0.9831493593312506  1.0000
  O   O10       1.0  0.3691593295363149  0.6921689864335385  0.016850641179737915  1.0000
  O   O11       1.0  0.760362131065151  0.2630137454329151  0.8299108396416949  1.0000
  O   O12       1.0  0.239637867993115  0.7369862541617195  0.1700891608635444  1.0000
  Cl  Cl1       1.0  0.8298353208109983  0.6662367512953041  0.45118397010711175  1.0000
  Cl  Cl2       1.0  0.1701646798460981  0.3337632486780207  0.548816029504834  1.0000
  Cl  Cl3       1.0  0.682641030694718  0.37378943733590003  0.4828384205796862  1.0000
  Cl  Cl4       1.0  0.31735896996237833  0.6262105626374247  0.5171615790322597  1.0000
