data_image0
_chemical_formula_structural       H64C80N24O24Cl8
_chemical_formula_sum              "H64 C80 N24 O24 Cl8"
_cell_length_a       9.087536887857842
_cell_length_b       10.491938216506423
_cell_length_c       22.32501486223484
_cell_angle_alpha    90.0
_cell_angle_beta     99.96375695416053
_cell_angle_gamma    90.0

_space_group_name_H-M_alt    "P 1"
_space_group_IT_number       1

loop_
  _space_group_symop_operation_xyz
  'x, y, z'

loop_
  _atom_site_type_symbol
  _atom_site_label
  _atom_site_symmetry_multiplicity
  _atom_site_fract_x
  _atom_site_fract_y
  _atom_site_fract_z
  _atom_site_occupancy
  H   H1        1.0  0.60093221983389  0.014572699232965064  0.47916763111630656  1.0000
  H   H2        1.0  0.39906778040601837  0.5145726993994537  0.020832368604111622  1.0000
  H   H3        1.0  0.3990677796651449  0.9854273011000122  0.5208323685413305  1.0000
  H   H4        1.0  0.6009322201934947  0.48542730093352354  0.9791676310536903  1.0000
  H   H5        1.0  0.4271227219920942  0.012519935524719411  0.3808619865348872  1.0000
  H   H6        1.0  0.572877278440729  0.512519935691208  0.11913801364031838  1.0000
  H   H7        1.0  0.5728772788003337  0.9874800648082579  0.6191380135777022  1.0000
  H   H8        1.0  0.42712272125122075  0.4874800646417692  0.880861986472106  1.0000
  H   H9        1.0  0.7555189699351886  0.2071064750058681  0.2960521526966954  1.0000
  H   H10       1.0  0.2444810292042414  0.707106474219244  0.20394784702355778  1.0000
  H   H11       1.0  0.244481029756761  0.7928935253271091  0.7039478474157289  1.0000
  H   H12       1.0  0.7555189702947933  0.2928935251606205  0.7960521526340791  1.0000
  H   H13       1.0  0.8546845205768822  0.02256000417802833  0.6683890576612381  1.0000
  H   H14       1.0  0.14531547947467238  0.5225600033914042  0.83161094238857  1.0000
  H   H15       1.0  0.1453154791150676  0.9774399961549488  0.33161094245118616  1.0000
  H   H16       1.0  0.8546845213177555  0.4774399959884603  0.16838905772401935  1.0000
  H   H17       1.0  0.3373714953046981  0.22631882317647334  0.6492191359845837  1.0000
  H   H18       1.0  0.6626285047468563  0.7263188233429619  0.8507808640652245  1.0000
  H   H19       1.0  0.6626285043872516  0.7736811762033913  0.35078086412784076  1.0000
  H   H20       1.0  0.33737149604557154  0.2736811769900153  0.14921913604736475  1.0000
  H   H21       1.0  0.2923226305889536  0.15557427868113302  0.7499921354665775  1.0000
  H   H22       1.0  0.7076773694626007  0.6555742788476216  0.7500078645832304  1.0000
  H   H23       1.0  0.7076773691029962  0.8444257206987315  0.2500078646458468  1.0000
  H   H24       1.0  0.2923226313298271  0.3444257214853556  0.24999213552935873  1.0000
  H   H25       1.0  0.2557258083457002  0.22725706926569567  0.5467753104471126  1.0000
  H   H26       1.0  0.7442741917058542  0.7272570684790716  0.9532246896026955  1.0000
  H   H27       1.0  0.7442741913462494  0.7727429310672815  0.45322468966531176  1.0000
  H   H28       1.0  0.2557258079860955  0.27274293090079293  0.0467753105097288  1.0000
  H   H29       1.0  0.9798705957334073  0.16148668101518482  0.49646801120619033  1.0000
  H   H30       1.0  0.02012940469941592  0.6614866802285607  0.003531988969015231  1.0000
  H   H31       1.0  0.020129403958542375  0.8385133193177924  0.503531988906234  1.0000
  H   H32       1.0  0.979870596093012  0.3385133191513038  0.996468011143574  1.0000
  H   H33       1.0  0.3269057241288812  0.20214217394678857  0.4342437467718198  1.0000
  H   H34       1.0  0.673094276303942  0.7021421741132772  0.06575625340338566  1.0000
  H   H35       1.0  0.6730942755630686  0.7978578254330759  0.5657562533406045  1.0000
  H   H36       1.0  0.3269057244884859  0.2978578252665873  0.9342437467092037  1.0000
  H   H37       1.0  0.34164506324131433  0.3308511362122616  0.3824390981109352  1.0000
  H   H38       1.0  0.6583549360910307  0.8308511363787502  0.11756090206410542  1.0000
  H   H39       1.0  0.6583549364506354  0.6691488631676029  0.6175609020014893  1.0000
  H   H40       1.0  0.341645063600919  0.16914886395422699  0.8824390980483189  1.0000
  H   H41       1.0  0.25308087226780845  0.35581237546050454  0.4469878119574004  1.0000
  H   H42       1.0  0.7469191281650148  0.8558123756269932  0.05301218821780512  1.0000
  H   H43       1.0  0.7469191285246194  0.6441876239193599  0.5530121881551889  1.0000
  H   H44       1.0  0.253080871526935  0.1441876237528713  0.9469878118946193  1.0000
  H   H45       1.0  0.6223960347693481  0.38673453905936994  0.6451102664061766  1.0000
  H   H46       1.0  0.3776039652822063  0.8867345392258585  0.8548897336436314  1.0000
  H   H47       1.0  0.37760396602307983  0.6132654612736073  0.3548897337064127  1.0000
  H   H48       1.0  0.6223960344097434  0.11326546110711865  0.14511026646879283  1.0000
  H   H49       1.0  0.807483440672536  0.334577218008902  0.639304574232901  1.0000
  H   H50       1.0  0.1925165593790184  0.8345772181753905  0.8606954258169072  1.0000
  H   H51       1.0  0.192516559926977  0.6654227813709626  0.36069542542490096  1.0000
  H   H52       1.0  0.8074834403129313  0.16542278120447387  0.1393045742955172  1.0000
  H   H53       1.0  0.6550232074767613  0.22302782686221012  0.6297775184500739  1.0000
  H   H54       1.0  0.344976792574793  0.7230278270286987  0.8702224815997343  1.0000
  H   H55       1.0  0.3449767922151883  0.7769721734707672  0.37022248166235044  1.0000
  H   H56       1.0  0.6550232071171567  0.27697217330427853  0.12977751851269012  1.0000
  H   H57       1.0  0.7401665410025104  0.5279970474172881  0.33153489009386866  1.0000
  H   H58       1.0  0.25983345943031266  0.02799704725079956  0.16846511008133686  1.0000
  H   H59       1.0  0.25983345978991734  0.47200295291568906  0.6684651100187206  1.0000
  H   H60       1.0  0.740166540261637  0.9720029530821777  0.8315348900310874  1.0000
  H   H61       1.0  0.9182824763754189  0.5207181101585984  0.4345642283258614  1.0000
  H   H62       1.0  0.08171752405740426  0.02071810999210976  0.06543577184934418  1.0000
  H   H63       1.0  0.08171752441700897  0.4792818901743789  0.5654357717867279  1.0000
  H   H64       1.0  0.9182824756345453  0.9792818903408674  0.9345642282630802  1.0000
  C   C1        1.0  0.7766770274640391  0.1126832826884171  0.4447163210668312  1.0000
  C   C2        1.0  0.2233229729687841  0.6126832828549057  0.055283679108374326  1.0000
  C   C3        1.0  0.2233229722279106  0.8873167166914474  0.5552836790455932  1.0000
  C   C4        1.0  0.7766770278236439  0.3873167174780715  0.9447163210042151  1.0000
  C   C5        1.0  0.9840639339957188  0.10696225490867224  0.6065394860319937  1.0000
  C   C6        1.0  0.015936066055835738  0.6069622550751609  0.8934605140178145  1.0000
  C   C7        1.0  0.015936065696231055  0.893037745424305  0.39346051408043065  1.0000
  C   C8        1.0  0.984063933636114  0.3930377452578163  0.10653948609460992  1.0000
  C   C9        1.0  0.6336797281964736  0.057282788708616875  0.43937244230578837  1.0000
  C   C10       1.0  0.36632027223634966  0.5572827879219927  0.06062755786941715  1.0000
  C   C11       1.0  0.3663202714954762  0.9427172116243604  0.560627557806636  1.0000
  C   C12       1.0  0.6336797285560782  0.44271721145787174  0.9393724422431722  1.0000
  C   C13       1.0  0.12244088382604185  0.16429564056029863  0.6012608476359088  1.0000
  C   C14       1.0  0.8775591162255125  0.6642956407267873  0.8987391524138992  1.0000
  C   C15       1.0  0.8775591158659077  0.8357043597726785  0.3987391524765155  1.0000
  C   C16       1.0  0.1224408845669154  0.33570435960618994  0.10126084769869002  1.0000
  C   C17       1.0  0.5370555447216989  0.05545139973133807  0.3841343263272797  1.0000
  C   C18       1.0  0.462944454610646  0.5554513998978268  0.1158656738477609  1.0000
  C   C19       1.0  0.4629444549702507  0.9445485996485263  0.6158656737851447  1.0000
  C   C20       1.0  0.5370555450813036  0.44454859948203784  0.8841343262646635  1.0000
  C   C21       1.0  0.8587074691692731  0.08057859306395225  0.5556420786186915  1.0000
  C   C22       1.0  0.14129253088228128  0.5805785932304409  0.9443579214311167  1.0000
  C   C23       1.0  0.14129253052267648  0.9194214063159123  0.4443579214937328  1.0000
  C   C24       1.0  0.8587074699101467  0.4194214061494236  0.055642078681472695  1.0000
  C   C25       1.0  0.8189151114449537  0.16440742734132968  0.39125468567701993  1.0000
  C   C26       1.0  0.18108488879495452  0.6644074275078183  0.10874531404339821  1.0000
  C   C27       1.0  0.1810848882469959  0.8355925720385348  0.6087453144354044  1.0000
  C   C28       1.0  0.8189151107040803  0.3355925728251589  0.8912546856142387  1.0000
  C   C29       1.0  0.5808676117715657  0.11105936633965373  0.3333672293267151  1.0000
  C   C30       1.0  0.41913238866125757  0.6110593665061423  0.16663277084849046  1.0000
  C   C31       1.0  0.4191323890208622  0.8889406339933235  0.6666327707858741  1.0000
  C   C32       1.0  0.5808676110306922  0.3889406338268349  0.8333672292639339  1.0000
  C   C33       1.0  0.06998570456193601  0.08461388369627715  0.7151935244614162  1.0000
  C   C34       1.0  0.9300142954896183  0.5846138838627658  0.784806475588392  1.0000
  C   C35       1.0  0.9300142951300138  0.9153861166367001  0.2848064756510082  1.0000
  C   C36       1.0  0.06998570530280951  0.41538611647021145  0.21519352452419732  1.0000
  C   C37       1.0  0.722266216227923  0.16508183562071393  0.33613398417640883  1.0000
  C   C38       1.0  0.277733783104422  0.6650818357872025  0.16386601599863176  1.0000
  C   C39       1.0  0.27773378346402666  0.8349181637591505  0.6638660159360155  1.0000
  C   C40       1.0  0.7222662165875277  0.33491816359266197  0.8361339841137927  1.0000
  C   C41       1.0  0.9603289496739523  0.06794211758495858  0.6644500217080519  1.0000
  C   C42       1.0  0.0396710503776021  0.5679421177514472  0.8355499783417563  1.0000
  C   C43       1.0  0.039671051118475596  0.9320578817949059  0.33554997840453743  1.0000
  C   C44       1.0  0.9603289493143476  0.43205788258153  0.16445002177066811  1.0000
  C   C45       1.0  0.231323275282325  0.18210953882610773  0.6534273197923204  1.0000
  C   C46       1.0  0.7686767247692294  0.6821095389925963  0.8465726802574877  1.0000
  C   C47       1.0  0.768676725510103  0.8178904605537568  0.3465726803202689  1.0000
  C   C48       1.0  0.23132327492272026  0.3178904613403809  0.15342731985493663  1.0000
  C   C49       1.0  0.2060013227235432  0.14261823498406453  0.7100706141471922  1.0000
  C   C50       1.0  0.7939986773280112  0.6426182341974405  0.789929385902616  1.0000
  C   C51       1.0  0.7939986769684065  0.8573817653489127  0.28992938596523216  1.0000
  C   C52       1.0  0.2060013223639385  0.3573817651824241  0.21007061420980847  1.0000
  C   C53       1.0  0.5936586678677098  0.4015620710929889  0.4365327582260609  1.0000
  C   C54       1.0  0.4063413314646351  0.9015620712594776  0.06346724194897971  1.0000
  C   C55       1.0  0.4063413318242398  0.5984379282868756  0.5634672418863635  1.0000
  C   C56       1.0  0.5936586682273146  0.09843792907349967  0.9365327581634447  1.0000
  C   C57       1.0  0.7783351601150301  0.40555437919999826  0.5317470449783458  1.0000
  C   C58       1.0  0.22166483993652433  0.905554379366487  0.9682529550714624  1.0000
  C   C59       1.0  0.22166484067739778  0.5944456201798662  0.4682529551342435  1.0000
  C   C60       1.0  0.7783351597554254  0.09444562096649031  0.03174704504096203  1.0000
  C   C61       1.0  0.7346468140878057  0.43187796634860465  0.46890074479712535  1.0000
  C   C62       1.0  0.2653531863450175  0.9318779665150932  0.031099255378080164  1.0000
  C   C63       1.0  0.26535318560414406  0.5681220339843727  0.531099255315299  1.0000
  C   C64       1.0  0.7346468144474104  0.06812203381788398  0.9689007447345093  1.0000
  C   C65       1.0  0.5209969678699095  0.3158968411371002  0.5254692241326343  1.0000
  C   C66       1.0  0.47900303218164486  0.8158968413035889  0.9745307759171737  1.0000
  C   C67       1.0  0.47900303162912516  0.684103159195877  0.4745307755250026  1.0000
  C   C68       1.0  0.5209969675103049  0.18410315902938842  0.025469224195250592  1.0000
  C   C69       1.0  0.34293476976711873  0.3051452986029924  0.4299737042223767  1.0000
  C   C70       1.0  0.6570652306657045  0.8051452978163682  0.07002629595282894  1.0000
  C   C71       1.0  0.657065229924831  0.6948547017299849  0.5700262958900477  1.0000
  C   C72       1.0  0.34293476902624515  0.19485470156349624  0.9299737041595955  1.0000
  C   C73       1.0  0.688589586370981  0.3210182313789398  0.6223981448043486  1.0000
  C   C74       1.0  0.3114104136805735  0.8210182315454284  0.8776018552454595  1.0000
  C   C75       1.0  0.31141041332096864  0.6789817689540375  0.3776018553080756  1.0000
  C   C76       1.0  0.6885895871118545  0.17898176878754882  0.12239814486712985  1.0000
  C   C77       1.0  0.7118788097004889  0.4890636090410167  0.37319207098823576  1.0000
  C   C78       1.0  0.2881211905394195  0.9890636092075054  0.12680792873218238  1.0000
  C   C79       1.0  0.28812118999146086  0.5109363903388477  0.6268079291241886  1.0000
  C   C80       1.0  0.7118788100600936  0.010936390172359126  0.8731920709256196  1.0000
  N   N1        1.0  0.8782116614697043  0.11968336965847318  0.4983540925796115  1.0000
  N   N2        1.0  0.12178833896311889  0.6196833698249617  0.0016459075955940219  1.0000
  N   N3        1.0  0.12178833932272357  0.8803166306745042  0.5016459075329778  1.0000
  N   N4        1.0  0.8782116607288307  0.38031663050801545  0.9983540925168303  1.0000
  N   N5        1.0  0.47713103734250556  0.11357357386315013  0.27621218088522637  1.0000
  N   N6        1.0  0.5228689630903177  0.6135735740296387  0.2237878192899792  1.0000
  N   N7        1.0  0.5228689623494442  0.8864264264698271  0.723787819227198  1.0000
  N   N8        1.0  0.47713103770211024  0.38642642630333845  0.7762121808226101  1.0000
  N   N9        1.0  0.6623767730132271  0.3477046351893914  0.5569406475993447  1.0000
  N   N10       1.0  0.3376232270383273  0.84770463535588  0.9430593524504634  1.0000
  N   N11       1.0  0.3376232266787227  0.6522953651435858  0.4430593525130797  1.0000
  N   N12       1.0  0.6623767726536223  0.1522953649770972  0.05694064766196093  1.0000
  N   N13       1.0  0.5788018257456822  0.4367585069068248  0.3773393431599589  1.0000
  N   N14       1.0  0.42119817449422603  0.9367585070733134  0.1226606565604593  1.0000
  N   N15       1.0  0.42119817485383076  0.5632414934261524  0.6226606564978431  1.0000
  N   N16       1.0  0.5788018251977237  0.0632414932596638  0.8773393435519651  1.0000
  N   N17       1.0  0.4879390353120183  0.3430510974928782  0.4642628100204173  1.0000
  N   N18       1.0  0.5120609649278899  0.8430510976593668  0.03573718970000084  1.0000
  N   N19       1.0  0.5120609643799313  0.656948902840099  0.535737190092007  1.0000
  N   N20       1.0  0.48793903567162306  0.1569489026736104  0.9642628099578011  1.0000
  N   N21       1.0  0.8083144289611942  0.4887032552224962  0.4267854301184225  1.0000
  N   N22       1.0  0.19168557127871405  0.9887032553889847  0.07321456960199568  1.0000
  N   N23       1.0  0.19168557073075546  0.5112967451104811  0.5732145699940019  1.0000
  N   N24       1.0  0.808314429320799  0.01129674494399244  0.9267854300558063  1.0000
  O   O1        1.0  0.14883197779368296  0.20019627037981177  0.5456754771654125  1.0000
  O   O2        1.0  0.8511680222578715  0.7001962695931876  0.9543245228843955  1.0000
  O   O3        1.0  0.851168022998745  0.7998037299531655  0.45432452294717673  1.0000
  O   O4        1.0  0.14883197743407825  0.29980372978667685  0.04567547722802883  1.0000
  O   O5        1.0  0.742591348573206  0.027331274172855725  0.5647104453146127  1.0000
  O   O6        1.0  0.2574086512854335  0.5273312743393443  0.9352895542804082  1.0000
  O   O7        1.0  0.25740865092582876  0.9726687261601215  0.4352895543430243  1.0000
  O   O8        1.0  0.7425913482136012  0.4726687259936329  0.0647104453772289  1.0000
  O   O9        1.0  0.5161513588930328  0.16982603530744964  0.23232578131571613  1.0000
  O   O10       1.0  0.48384864153979046  0.6698260345208256  0.2676742188594894  1.0000
  O   O11       1.0  0.483848640798917  0.8301739650255275  0.7676742187967083  1.0000
  O   O12       1.0  0.5161513581521593  0.330173964859039  0.7323257812529351  1.0000
  O   O13       1.0  0.3530191769845018  0.06075682270003479  0.27367137831302285  1.0000
  O   O14       1.0  0.6469808232554064  0.5607568228665234  0.22632862140739532  1.0000
  O   O15       1.0  0.6469808236150112  0.9392431776329424  0.726328621344779  1.0000
  O   O16       1.0  0.3530191764365433  0.43924317746645386  0.7736713787050291  1.0000
  O   O17       1.0  0.9013105609815284  0.42965190482231236  0.5642449140084821  1.0000
  O   O18       1.0  0.09868943887711117  0.929651904988801  0.9357550855865386  1.0000
  O   O19       1.0  0.09868943961798465  0.5703480955106648  0.43575508564931975  1.0000
  O   O20       1.0  0.9013105606219236  0.07034809534417621  0.06424491407109834  1.0000
  O   O21       1.0  0.42826965590898575  0.264516050583846  0.5529349766085967  1.0000
  O   O22       1.0  0.5717303439496537  0.7645160507503346  0.947065022986424  1.0000
  O   O23       1.0  0.5717303435900489  0.7354839487960185  0.44706502304904017  1.0000
  O   O24       1.0  0.42826965554938107  0.23548394862952987  0.05293497667121302  1.0000
  Cl  Cl1       1.0  0.994628268894451  0.22858533099507525  0.3945113850195365  1.0000
  Cl  Cl2       1.0  0.005371730437893917  0.7285853302084511  0.10548861515550412  1.0000
  Cl  Cl3       1.0  0.005371730797498612  0.7714146693379019  0.6054886150928879  1.0000
  Cl  Cl4       1.0  0.9946282692540557  0.27141466917141344  0.8945113849569203  1.0000
  Cl  Cl5       1.0  0.03998823091298378  0.031097081708573004  0.7856885253049875  1.0000
  Cl  Cl6       1.0  0.9600117691385704  0.5310970818750617  0.7143114747448206  1.0000
  Cl  Cl7       1.0  0.960011768778966  0.9689029186244041  0.21431147480743676  1.0000
  Cl  Cl8       1.0  0.039988230553379155  0.4689029184579156  0.28568852536760386  1.0000
