data_image0
_chemical_formula_structural       H66C70O2P6Cl2
_chemical_formula_sum              "H66 C70 O2 P6 Cl2"
_cell_length_a       11.585395937468128
_cell_length_b       11.748729241368471
_cell_length_c       12.557929730768507
_cell_angle_alpha    108.22377875188656
_cell_angle_beta     110.17204245186007
_cell_angle_gamma    100.14073659352326

_space_group_name_H-M_alt    "P 1"
_space_group_IT_number       1

loop_
  _space_group_symop_operation_xyz
  'x, y, z'

loop_
  _atom_site_type_symbol
  _atom_site_label
  _atom_site_symmetry_multiplicity
  _atom_site_fract_x
  _atom_site_fract_y
  _atom_site_fract_z
  _atom_site_occupancy
  H   H1        1.0  0.7569531237904363  0.8059010402711771  0.760529242613168  1.0000
  H   H2        1.0  0.24304687604724656  0.19409896021768794  0.2394707568955413  1.0000
  H   H3        1.0  0.9225217313126218  0.013199754491823765  0.9023720425579544  1.0000
  H   H4        1.0  0.0774782685250611  0.9868002459970414  0.09762795695075495  1.0000
  H   H5        1.0  0.8954419163071702  0.15592741701899418  0.08134124003283681  1.0000
  H   H6        1.0  0.10455808338080294  0.8440725826073192  0.9186587594809592  1.0000
  H   H7        1.0  0.699399534032293  0.0867157092649829  0.11354249209178705  1.0000
  H   H8        1.0  0.3006004656556799  0.9132842903613305  0.8864575074220088  1.0000
  H   H9        1.0  0.5379352389443413  0.8746319917431313  0.9773458590102457  1.0000
  H   H10       1.0  0.4620647611600926  0.12536800826997802  0.02265414143100654  1.0000
  H   H11       1.0  0.30938561756998423  0.4493994116150483  0.5965821688065591  1.0000
  H   H12       1.0  0.6906143825344496  0.5506005883980611  0.4034178316346931  1.0000
  H   H13       1.0  0.1215318588640694  0.2704819739563449  0.5504846994741934  1.0000
  H   H14       1.0  0.8784681412403645  0.7295180260567644  0.4495153009670588  1.0000
  H   H15       1.0  0.11898083012498105  0.05001972602293883  0.46241818903879317  1.0000
  H   H16       1.0  0.8810191699794527  0.9499802739901705  0.5375818114024591  1.0000
  H   H17       1.0  0.3020816628604663  0.005019557074659185  0.41325362587425035  1.0000
  H   H18       1.0  0.6979183372439677  0.9949804429384502  0.5867463745670018  1.0000
  H   H19       1.0  0.48543135670889603  0.1819326957038862  0.45243031169827463  1.0000
  H   H20       1.0  0.514568642979077  0.8180673039224272  0.5475696878155214  1.0000
  H   H21       1.0  0.5017314934634389  0.3965732161854547  0.7994031787390026  1.0000
  H   H22       1.0  0.4982685066409951  0.6034267838276546  0.20059682170224977  1.0000
  H   H23       1.0  0.4364464278169193  0.18294609601262352  0.7965329719058292  1.0000
  H   H24       1.0  0.5635535722875146  0.8170539040004858  0.20346702853542306  1.0000
  H   H25       1.0  0.5852460696348404  0.05196785830567061  0.7937984469329964  1.0000
  H   H26       1.0  0.4147539304695934  0.9480321417074387  0.20620155350825578  1.0000
  H   H27       1.0  0.7987969096823374  0.1391239686799653  0.7982196033185596  1.0000
  H   H28       1.0  0.20120309057180635  0.8608760321956956  0.20178039711760598  1.0000
  H   H29       1.0  0.8661173914531333  0.3535233796151764  0.8051995801535365  1.0000
  H   H30       1.0  0.13388260865130058  0.6464766203979331  0.19480042028771571  1.0000
  H   H31       1.0  0.6379562989258102  0.5235330201253141  0.0009504067192845955  1.0000
  H   H32       1.0  0.36204370076216286  0.47646697950099937  0.9990495927945116  1.0000
  H   H33       1.0  0.711159752610834  0.651891659456414  0.22227772880499977  1.0000
  H   H34       1.0  0.2888402474935999  0.3481083405566953  0.7777222716362524  1.0000
  H   H35       1.0  0.8962853245302134  0.8526517207728945  0.3308308088016145  1.0000
  H   H36       1.0  0.10371467557422032  0.14734827924021487  0.6691691916396377  1.0000
  H   H37       1.0  0.00494791920825477  0.9254316028036716  0.21386731796632508  1.0000
  H   H38       1.0  0.9950520804797184  0.07456839682264176  0.7861326815474711  1.0000
  H   H39       1.0  0.9341569600314157  0.7947327757708634  0.9906570236465648  1.0000
  H   H40       1.0  0.06584303965655743  0.20526722385545013  0.00934297586723133  1.0000
  H   H41       1.0  0.790794320725287  0.6102138464123011  0.6296609538266043  1.0000
  H   H42       1.0  0.20920567952885663  0.3897861544633599  0.37033904660956124  1.0000
  H   H43       1.0  0.9874559780745088  0.6392368712754021  0.5911796525248055  1.0000
  H   H44       1.0  0.012544021613464384  0.36076312835091146  0.40882034698899056  1.0000
  H   H45       1.0  0.19165263891861467  0.6265332220192187  0.7381309732527009  1.0000
  H   H46       1.0  0.8083473607693584  0.3734667776070948  0.26186902626109515  1.0000
  H   H47       1.0  0.19797106200799286  0.5954226848437436  0.9257847583072674  1.0000
  H   H48       1.0  0.8020289376799802  0.40457731478256986  0.07421524120652875  1.0000
  H   H49       1.0  0.0014276062662301231  0.5684991364397725  0.964829779460369  1.0000
  H   H50       1.0  0.9985723938382037  0.43150086357333683  0.035170220980883196  1.0000
  H   H51       1.0  0.781630655950926  0.9911425730092804  0.32685274073247544  1.0000
  H   H52       1.0  0.21836934430321772  0.008857427866380451  0.67314725970369  1.0000
  H   H53       1.0  0.865524781146216  0.11961552422989648  0.30693216807313184  1.0000
  H   H54       1.0  0.13447521854175712  0.880384475396417  0.6930678314406642  1.0000
  H   H55       1.0  0.6648435640712059  0.1700726298147365  0.2769379163707854  1.0000
  H   H56       1.0  0.3351564361829378  0.8299273710609245  0.7230620840653801  1.0000
  H   H57       1.0  0.6308584949836712  0.09085742543705506  0.36702362289628226  1.0000
  H   H58       1.0  0.36914150512076266  0.9091425745760543  0.6329763775449699  1.0000
  H   H59       1.0  0.8329416284156413  0.34996715831456243  0.46338679243649133  1.0000
  H   H60       1.0  0.1670583722852656  0.6500328421763717  0.5366132070714227  1.0000
  H   H61       1.0  0.7115751500428655  0.3131047140097917  0.5134317121341918  1.0000
  H   H62       1.0  0.2884248497948175  0.6868952864790735  0.4865682873745175  1.0000
  H   H63       1.0  0.9562900491613883  0.3086086739722613  0.6417946189785183  1.0000
  H   H64       1.0  0.04370995094304563  0.6913913260408479  0.358205381462734  1.0000
  H   H65       1.0  0.8189950950932586  0.18297197832079057  0.6066571432367361  1.0000
  H   H66       1.0  0.18100490516088508  0.8170280225548704  0.39334285719942935  1.0000
  C   C1        1.0  0.6031841822567001  0.5720175993220205  0.7117087814894804  1.0000
  C   C2        1.0  0.39681581743127287  0.42798240030429296  0.2882912180243157  1.0000
  C   C3        1.0  0.6372030189257455  0.8239715354162866  0.8604432523619053  1.0000
  C   C4        1.0  0.36279698132839816  0.1760284654593744  0.13955674807426025  1.0000
  C   C5        1.0  0.7449543096801456  0.8666879352692715  0.8389335293523743  1.0000
  C   C6        1.0  0.25504569015753736  0.13331206521959357  0.1610664701563351  1.0000
  C   C7        1.0  0.8375887080440263  0.9845647285617085  0.9184719819092002  1.0000
  C   C8        1.0  0.1624112916439468  0.015435271064604985  0.0815280176045959  1.0000
  C   C9        1.0  0.8231015924980642  0.06368659348022  0.01879495333755961  1.0000
  C   C10       1.0  0.176898407189909  0.9363134061460936  0.9812050461762365  1.0000
  C   C11       1.0  0.7133947699884229  0.024358744687690212  0.03749068116397607  1.0000
  C   C12       1.0  0.28660522969955016  0.9756412549386231  0.9625093183498199  1.0000
  C   C13       1.0  0.6213566522174481  0.9054300005181596  0.9596220524267715  1.0000
  C   C14       1.0  0.37864334788698584  0.09456999949494985  0.0403779480144809  1.0000
  C   C15       1.0  0.4093186516789327  0.32730151638814775  0.5261876357333026  1.0000
  C   C16       1.0  0.5906813484255011  0.6726984836249617  0.4738123647079496  1.0000
  C   C17       1.0  0.3068883151272842  0.35172882076784384  0.5548414077028305  1.0000
  C   C18       1.0  0.6931116845606888  0.6482711788584696  0.44515859181096556  1.0000
  C   C19       1.0  0.20240850612113945  0.2523876267818912  0.5303257561592012  1.0000
  C   C20       1.0  0.7975914935668337  0.7476123728444222  0.4696742433545948  1.0000
  C   C21       1.0  0.19984572072302778  0.1271827774159633  0.47910215051652455  1.0000
  C   C22       1.0  0.8001542791146551  0.872817223072902  0.5208978489921848  1.0000
  C   C23       1.0  0.30222377178181  0.10201980588975161  0.45193308752550876  1.0000
  C   C24       1.0  0.697776227906163  0.8979801937365618  0.5480669119882872  1.0000
  C   C25       1.0  0.4057501460737025  0.2015214895458102  0.47439406871588224  1.0000
  C   C26       1.0  0.5942498536142706  0.7984785100805033  0.5256059307979138  1.0000
  C   C27       1.0  0.6894755418144304  0.39081305716638953  0.8054292410205466  1.0000
  C   C28       1.0  0.31052445829000347  0.6091869428467197  0.1945707594207056  1.0000
  C   C29       1.0  0.567608851028453  0.3406294697568657  0.8011718487754061  1.0000
  C   C30       1.0  0.4323911490759809  0.6593705302562437  0.19882815166584614  1.0000
  C   C31       1.0  0.5304274425064226  0.21960099133961003  0.7977839739476491  1.0000
  C   C32       1.0  0.46957255759801125  0.7803990086734994  0.2022160264936032  1.0000
  C   C33       1.0  0.6133317425527466  0.14654890585173888  0.7960564788575344  1.0000
  C   C34       1.0  0.38666825755168727  0.8534510941613703  0.20394352158371779  1.0000
  C   C35       1.0  0.7335697008527449  0.19542536574257888  0.7984353188082012  1.0000
  C   C36       1.0  0.26643029925168904  0.8045746342705306  0.201564681633051  1.0000
  C   C37       1.0  0.7719953434834691  0.3170102592741794  0.803405446579258  1.0000
  C   C38       1.0  0.2280046566209648  0.6829897407389299  0.19659455386199418  1.0000
  C   C39       1.0  0.7811347937187213  0.6502667490604424  0.9799322025239159  1.0000
  C   C40       1.0  0.21886520596925163  0.34973325056587107  0.020067796989880118  1.0000
  C   C41       1.0  0.7179854387334051  0.6115640148749969  0.045949130781041014  1.0000
  C   C42       1.0  0.28201456137102876  0.38843598513811245  0.9540508696602111  1.0000
  C   C43       1.0  0.7589246396098749  0.684805341929589  0.1714277103317334  1.0000
  C   C44       1.0  0.24107536049455894  0.3151946580835203  0.8285722901095188  1.0000
  C   C45       1.0  0.862325619346314  0.7972527041864941  0.23209325166628533  1.0000
  C   C46       1.0  0.1376743803416589  0.20274729543981937  0.7679067478475107  1.0000
  C   C47       1.0  0.9246102528374919  0.8371028128387302  0.16650510626363643  1.0000
  C   C48       1.0  0.07538974700019112  0.16289718765013483  0.833494893245073  1.0000
  C   C49       1.0  0.8848575378240745  0.7638564784391042  0.041291116981517786  1.0000
  C   C50       1.0  0.11514246228035939  0.2361435215740051  0.9587088834597344  1.0000
  C   C51       1.0  0.8809260085327882  0.5813585135003948  0.796171692709837  1.0000
  C   C52       1.0  0.11907399157164548  0.41864148651271443  0.2038283077314151  1.0000
  C   C53       1.0  0.8793538603149278  0.6048971644429103  0.6932819777315476  1.0000
  C   C54       1.0  0.12064613978950615  0.3951028355701991  0.3067180227097046  1.0000
  C   C55       1.0  0.9904761064391131  0.6210868001326876  0.6719646382573304  1.0000
  C   C56       1.0  0.009523893398569856  0.3789132003561776  0.328035361251379  1.0000
  C   C57       1.0  0.10424586922825033  0.6146425897434582  0.7537819257317053  1.0000
  C   C58       1.0  0.8957541304597226  0.3853574098828553  0.24621807378209068  1.0000
  C   C59       1.0  0.1080129481728937  0.5958504604708963  0.8593901349672278  1.0000
  C   C60       1.0  0.8919870515150794  0.4041495391554172  0.1406098645465683  1.0000
  C   C61       1.0  0.9970217524868581  0.5795550125700035  0.880701613231244  1.0000
  C   C62       1.0  0.002978247617575861  0.42044498744310577  0.11929838721000818  1.0000
  C   C63       1.0  0.8167977317015246  0.09467292333440423  0.3617328166314804  1.0000
  C   C64       1.0  0.18320226840290915  0.9053270766787052  0.6382671838097718  1.0000
  C   C65       1.0  0.7087931716685637  0.1533371893579425  0.36082894900292517  1.0000
  C   C66       1.0  0.2912068285855801  0.8466628115177186  0.6391710514332404  1.0000
  C   C67       1.0  0.7779071574408731  0.27538357184621304  0.4789708254349186  1.0000
  C   C68       1.0  0.22209284224710008  0.7246164277801005  0.5210291740788775  1.0000
  C   C69       1.0  0.8696062130789157  0.23248038375388627  0.5657618428725913  1.0000
  C   C70       1.0  0.130393786758767  0.7675196167349788  0.434238156636118  1.0000
  O   O1        1.0  0.9118466217901902  0.14549183581789812  0.4896574340243197  1.0000
  O   O2        1.0  0.08815337846395352  0.8545081650577628  0.5103425664118458  1.0000
  P   P1        1.0  0.5149727309583609  0.6728194913235025  0.7436893505885418  1.0000
  P   P2        1.0  0.48502727000929696  0.32718050869167586  0.256310649851915  1.0000
  P   P3        1.0  0.5517176833806182  0.4528004720577715  0.557056855411866  1.0000
  P   P4        1.0  0.4482823163073549  0.547199527568542  0.4429431441019299  1.0000
  P   P5        1.0  0.7330299276207902  0.5524417225011494  0.8178263647414675  1.0000
  P   P6        1.0  0.26697007248364385  0.44755827751195987  0.18217363569978473  1.0000
  Cl  Cl1       1.0  0.43267012052263587  0.6256966180843563  0.8650307330413205  1.0000
  Cl  Cl2       1.0  0.567329879731508  0.3743033827913047  0.13496926739484502  1.0000
