data_image0
_chemical_formula_structural       H16C32O8S16Cl2I8
_chemical_formula_sum              "H16 C32 O8 S16 Cl2 I8"
_cell_length_a       7.441548368443784
_cell_length_b       13.47334021363861
_cell_length_c       13.804977457687558
_cell_angle_alpha    91.58737572484257
_cell_angle_beta     101.12446962861351
_cell_angle_gamma    104.26199444306886

_space_group_name_H-M_alt    "P 1"
_space_group_IT_number       1

loop_
  _space_group_symop_operation_xyz
  'x, y, z'

loop_
  _atom_site_type_symbol
  _atom_site_label
  _atom_site_symmetry_multiplicity
  _atom_site_fract_x
  _atom_site_fract_y
  _atom_site_fract_z
  _atom_site_occupancy
  H   H1        1.0  0.9789988540092719  0.5237152121677121  0.8740790124222655  1.0000
  H   H2        1.0  0.021001146949214622  0.47628478807566715  0.12592098801364016  1.0000
  H   H3        1.0  0.20180473666501764  0.578342069537891  0.9579050286415345  1.0000
  H   H4        1.0  0.7981952626597358  0.4216579306450564  0.042094971052364115  1.0000
  H   H5        1.0  0.3270226417819436  0.4334238731873364  0.9175670081788256  1.0000
  H   H6        1.0  0.67297735754281  0.5665761269956111  0.08243299151507304  1.0000
  H   H7        1.0  0.09758536242697662  0.3810918162450785  0.9440344136511823  1.0000
  H   H8        1.0  0.9024146382426729  0.6189081839391644  0.055965586044157314  1.0000
  H   H9        1.0  0.8496579870514901  0.18534340289280427  0.023691889626830866  1.0000
  H   H10       1.0  0.1503420125621004  0.8146565973492796  0.9763081108076336  1.0000
  H   H11       1.0  0.03832849335331023  0.14747114686571805  0.9812487109103962  1.0000
  H   H12       1.0  0.9616715073163391  0.8525288533185249  0.018751288784943376  1.0000
  H   H13       1.0  0.8141424085208654  0.9940127660718623  0.03141621883290222  1.0000
  H   H14       1.0  0.18585759080388808  0.005987234111085206  0.9685837808609964  1.0000
  H   H15       1.0  0.6209747286262304  0.020754755838139457  0.9453571187535139  1.0000
  H   H16       1.0  0.379025272332256  0.9792452444052399  0.05464288168239163  1.0000
  C   C1        1.0  0.31423077117204173  0.5255005544425728  0.28788236815708806  1.0000
  C   C2        1.0  0.6857692297864446  0.47449944580080644  0.7121176322788175  1.0000
  C   C3        1.0  0.2757439933724873  0.4214887149813797  0.2824120405337354  1.0000
  C   C4        1.0  0.7242560059522662  0.5785112852015678  0.7175879591601632  1.0000
  C   C5        1.0  0.253644469168644  0.47541052903244474  0.4601020527390014  1.0000
  C   C6        1.0  0.7463555315010053  0.5245894711517982  0.5398979469563383  1.0000
  C   C7        1.0  0.2246708114803898  0.47606018238966563  0.5553638541934712  1.0000
  C   C8        1.0  0.7753291891892594  0.5239398177945772  0.4446361455018685  1.0000
  C   C9        1.0  0.2008521916006969  0.5292960702861391  0.7298721289700969  1.0000
  C   C10       1.0  0.7991478090689524  0.47070392989810367  0.2701278707252427  1.0000
  C   C11       1.0  0.15598275730483255  0.42488287699167326  0.7233863180655826  1.0000
  C   C12       1.0  0.844017243024682  0.575117122426633  0.27661368162817423  1.0000
  C   C13       1.0  0.13226442495068974  0.5309852452791779  0.8885613517667589  1.0000
  C   C14       1.0  0.8677355743740638  0.46901475490376954  0.11143864792713969  1.0000
  C   C15       1.0  0.17467363514029943  0.4266518460317392  0.8934450464900304  1.0000
  C   C16       1.0  0.8253263641844542  0.5733481541512082  0.10655495320386814  1.0000
  C   C17       1.0  0.7236060915830269  0.08290135322812102  0.3334622969473015  1.0000
  C   C18       1.0  0.2763939090866223  0.9170986469561219  0.666537702748038  1.0000
  C   C19       1.0  0.7287478413161436  0.9830435644687435  0.3325298816923685  1.0000
  C   C20       1.0  0.271252159302208  0.016956435008699387  0.6674701187419542  1.0000
  C   C21       1.0  0.7494872496849149  0.04012245003628055  0.5154584294005952  1.0000
  C   C22       1.0  0.25051275098473463  0.9598775501479624  0.4845415702947444  1.0000
  C   C23       1.0  0.7680687656117094  0.047494819874526896  0.6166100512188862  1.0000
  C   C24       1.0  0.23193123371304403  0.9525051803084205  0.3833899484750123  1.0000
  C   C25       1.0  0.8067019418922362  0.11706893477150684  0.7947324017428922  1.0000
  C   C26       1.0  0.19329805743251735  0.8829310654114407  0.20526759795100646  1.0000
  C   C27       1.0  0.805187638811006  0.015924018830055897  0.7992389234497103  1.0000
  C   C28       1.0  0.19481236017361275  0.9840759805869552  0.20076107624260575  1.0000
  C   C29       1.0  0.8844643890261104  0.13930232119863994  0.9668218368180916  1.0000
  C   C30       1.0  0.11553561130340415  0.8606976782196664  0.03317816287566522  1.0000
  C   C31       1.0  0.7745470875451181  0.02812514720472211  0.9621041730510324  1.0000
  C   C32       1.0  0.22545291172833767  0.9718748522714254  0.03789582738184952  1.0000
  O   O1        1.0  0.20850746556747565  0.588822942544394  0.8119633183006248  1.0000
  O   O2        1.0  0.7914925351021737  0.4111770576398489  0.18803668139471472  1.0000
  O   O3        1.0  0.10964821677333371  0.3668639214667574  0.7980873407551379  1.0000
  O   O4        1.0  0.8903517841851527  0.6331360787766218  0.20191265968076752  1.0000
  O   O5        1.0  0.8309266271962308  0.18364356342421173  0.8741743815714005  1.0000
  O   O6        1.0  0.16907337212852272  0.8163564367587358  0.12582561812249804  1.0000
  O   O7        1.0  0.8193327389104359  0.9680693474885161  0.8848000182464598  1.0000
  O   O8        1.0  0.18066726204805056  0.03193065275486326  0.11519998218944559  1.0000
  S   S1        1.0  0.314081055781525  0.5875684086519543  0.4000640609543882  1.0000
  S   S2        1.0  0.6859189435432285  0.4124315915309931  0.5999359387395105  1.0000
  S   S3        1.0  0.2303610519331632  0.36205531749088354  0.3887999283006368  1.0000
  S   S4        1.0  0.7696389473915903  0.6379446826920638  0.6112000713932618  1.0000
  S   S5        1.0  0.25265933705668875  0.5909155834125529  0.6254715167841787  1.0000
  S   S6        1.0  0.7473406622680647  0.4090844167703946  0.3745284829097199  1.0000
  S   S7        1.0  0.1594216436808475  0.36210587988522824  0.6119963018309885  1.0000
  S   S8        1.0  0.8405783553037711  0.6378941195317828  0.3880036978613275  1.0000
  S   S9        1.0  0.7297596619072192  0.1450460086990947  0.4465569083225593  1.0000
  S   S10       1.0  0.2702403377063715  0.8549539915429892  0.5534430921119052  1.0000
  S   S11       1.0  0.7411836023388838  0.9284594506839093  0.44582873557874886  1.0000
  S   S12       1.0  0.2588163986196027  0.07154054955947008  0.5541712648571566  1.0000
  S   S13       1.0  0.774754042658079  0.1636826353330572  0.6783416201682885  1.0000
  S   S14       1.0  0.22524595801157024  0.8363173648511857  0.32165837952705106  1.0000
  S   S15       1.0  0.7801538048704741  0.9440012534457053  0.6884308751906314  1.0000
  S   S16       1.0  0.21984619445427947  0.05599874673724217  0.3115691245032672  1.0000
  Cl  Cl1       1.0  0.5419035078907211  0.7545970933760315  0.010168550533109723  1.0000
  Cl  Cl2       1.0  0.45809649143403247  0.24540290680691587  0.9898314491607889  1.0000
  I   I1        1.0  0.38607700744906714  0.6206524669175785  0.17640227575217143  1.0000
  I   I2        1.0  0.6139229921645235  0.37934753332450544  0.8235977246822931  1.0000
  I   I3        1.0  0.2984840915335845  0.33002783989192896  0.1625311453254559  1.0000
  I   I4        1.0  0.7015159080800061  0.6699721603501549  0.8374688551090087  1.0000
  I   I5        1.0  0.6832552244186927  0.16657553636185574  0.21050377939241277  1.0000
  I   I6        1.0  0.3167447762509568  0.8334244638223872  0.7894962203029269  1.0000
  I   I7        1.0  0.6895814533600367  0.8868044660031877  0.20437555900863263  1.0000
  I   I8        1.0  0.31041854759844967  0.11319553424019145  0.7956244414272727  1.0000
