data_image0
_chemical_formula_structural       H28C26N4O4
_chemical_formula_sum              "H28 C26 N4 O4"
_cell_length_a       7.473585944550434
_cell_length_b       11.583566977034375
_cell_length_c       7.367044187063492
_cell_angle_alpha    90.0
_cell_angle_beta     112.45232037314136
_cell_angle_gamma    90.0

_space_group_name_H-M_alt    "P 1"
_space_group_IT_number       1

loop_
  _space_group_symop_operation_xyz
  'x, y, z'

loop_
  _atom_site_type_symbol
  _atom_site_label
  _atom_site_symmetry_multiplicity
  _atom_site_fract_x
  _atom_site_fract_y
  _atom_site_fract_z
  _atom_site_occupancy
  H   H1        1.0  0.3291095257187047  0.5259278227577275  0.31298221929668063  1.0000
  H   H2        1.0  0.32910952680399064  0.47407217663500056  0.8129822198423096  1.0000
  H   H3        1.0  0.6826473687305462  0.5488715455787649  0.50520046951803  1.0000
  H   H4        1.0  0.6826473690784537  0.4511284538139631  0.005200470898620866  1.0000
  H   H5        1.0  0.7618291735148737  0.20600972262957878  0.31799747651359356  1.0000
  H   H6        1.0  0.7618291731524407  0.7939902776264411  0.8179974764847032  1.0000
  H   H7        1.0  0.40600043483248066  0.19829600282486315  0.1280360561539338  1.0000
  H   H8        1.0  0.40600043593229207  0.8017039965678648  0.6280360553478623  1.0000
  H   H9        1.0  0.021556926240933954  0.4722845528364717  0.5266789452444628  1.0000
  H   H10       1.0  0.02155692658884141  0.5277154474195482  0.026678946625053684  1.0000
  H   H11       1.0  0.046303413723778095  0.31986457257474227  0.5015222494362528  1.0000
  H   H12       1.0  0.04630341408621109  0.6801354276812778  0.0015222494651432154  1.0000
  H   H13       1.0  0.9955647574556105  0.3749619930209094  0.7017554182641618  1.0000
  H   H14       1.0  0.9955647578180433  0.6250380072351106  0.2017554182930522  1.0000
  H   H15       1.0  0.3496705374606324  0.2569243788118486  0.5449416535928099  1.0000
  H   H16       1.0  0.3496705378230655  0.7430756214441714  0.04494165362170019  1.0000
  H   H17       1.0  0.6826198977866146  0.31937796944021773  0.7429803378586827  1.0000
  H   H18       1.0  0.6826198967013287  0.6806220308158023  0.24298033731305363  1.0000
  H   H19       1.0  0.7674710580438959  0.017234781859146456  0.10628330651547582  1.0000
  H   H20       1.0  0.7674710576814631  0.9827652175335816  0.6062833064865853  1.0000
  H   H21       1.0  0.43394803001215027  0.9550086784090229  0.9113638547693516  1.0000
  H   H22       1.0  0.4339480303745833  0.04499132184699703  0.411363854798242  1.0000
  H   H23       1.0  0.13229587495063763  0.9904983165157514  0.6369504828025846  1.0000
  H   H24       1.0  0.13229587386535174  0.009501683740268614  0.1369504822569557  1.0000
  H   H25       1.0  0.111679873293621  0.10228230840715793  0.47053433310800324  1.0000
  H   H26       1.0  0.11167987439343244  0.897717691848862  0.9705343323019318  1.0000
  H   H27       1.0  0.14618193778221478  0.33443067646437485  0.10464065775007282  1.0000
  H   H28       1.0  0.14618193741978178  0.6655693237916451  0.6046406577211825  1.0000
  C   C1        1.0  0.4305952799341612  0.45737714043558014  0.3165851987565607  1.0000
  C   C2        1.0  0.4305952795717283  0.5426228598204399  0.8165851987276703  1.0000
  C   C3        1.0  0.6277299713168787  0.46934179866864223  0.4244865168266068  1.0000
  C   C4        1.0  0.6277299709544456  0.5306582015873778  0.9244865167977164  1.0000
  C   C5        1.0  0.7539638124299513  0.3788986672845804  0.42738918615304  1.0000
  C   C6        1.0  0.7539638120675184  0.6211013321081477  0.9273891861241496  1.0000
  C   C7        1.0  0.6720380600627397  0.27960091277766247  0.31955219201161217  1.0000
  C   C8        1.0  0.6720380597003066  0.7203990874783575  0.8195521919827217  1.0000
  C   C9        1.0  0.4737103398142412  0.27457571457097824  0.21340721075513544  1.0000
  C   C10       1.0  0.47371034089952707  0.7254242856850417  0.7134072113007645  1.0000
  C   C11       1.0  0.9669807770912473  0.3869492004394268  0.5447315110025651  1.0000
  C   C12       1.0  0.9669807774536803  0.6130507998165932  0.044731511031455534  1.0000
  C   C13       1.0  0.3641145608655296  0.1023458630964397  0.715191919915382  1.0000
  C   C14       1.0  0.36411456122796254  0.8976541371595803  0.21519191994427236  1.0000
  C   C15       1.0  0.4402693092043449  0.205572984964054  0.6699435136301075  1.0000
  C   C16       1.0  0.44026930956677796  0.7944270152919659  0.1699435136589979  1.0000
  C   C17       1.0  0.6277984238083936  0.23968652535998203  0.7799944977181705  1.0000
  C   C18       1.0  0.6277984227231076  0.760313474896038  0.27999449717254143  1.0000
  C   C19       1.0  0.7501139285063037  0.17357078816794183  0.9395251421551251  1.0000
  C   C20       1.0  0.7501139288687368  0.8264292120880782  0.4395251421840155  1.0000
  C   C21       1.0  0.675490673685766  0.07011695288767957  0.9835370250884494  1.0000
  C   C22       1.0  0.675490674048199  0.9298830473683404  0.48353702511733976  1.0000
  C   C23       1.0  0.4877716016172557  0.035391726988136994  0.875268058867174  1.0000
  C   C24       1.0  0.4877716019796887  0.9646082724045911  0.3752680588960644  1.0000
  C   C25       1.0  0.9461501101954878  0.21215896751599597  0.0613917023542446  1.0000
  C   C26       1.0  0.9461501098475804  0.787841031876732  0.5613917009736538  1.0000
  N   N1        1.0  0.3545025467408393  0.3617905484820648  0.21167773500794712  1.0000
  N   N2        1.0  0.35450254637840634  0.6382094509106632  0.7116777349790567  1.0000
  N   N3        1.0  0.17925197283588495  0.06888209664448959  0.6082638013318328  1.0000
  N   N4        1.0  0.17925197319831793  0.9311179036115305  0.10826380136072325  1.0000
  O   O1        1.0  0.9973848209768174  0.31417640155361964  0.01398647467151672  1.0000
  O   O2        1.0  0.9973848206143844  0.6858235978391084  0.5139864746426264  1.0000
  O   O3        1.0  0.059231002392135954  0.15461177403737175  0.20351685318364396  1.0000
  O   O4        1.0  0.059231002029702946  0.8453882262186483  0.7035168531547535  1.0000
