data_image0
_chemical_formula_structural       H24C20N8O6S2Br2
_chemical_formula_sum              "H24 C20 N8 O6 S2 Br2"
_cell_length_a       6.193657457989095
_cell_length_b       7.112208007543275
_cell_length_c       15.506266045244345
_cell_angle_alpha    94.41491386684764
_cell_angle_beta     99.69462543578696
_cell_angle_gamma    90.56984125264485

_space_group_name_H-M_alt    "P 1"
_space_group_IT_number       1

loop_
  _space_group_symop_operation_xyz
  'x, y, z'

loop_
  _atom_site_type_symbol
  _atom_site_label
  _atom_site_symmetry_multiplicity
  _atom_site_fract_x
  _atom_site_fract_y
  _atom_site_fract_z
  _atom_site_occupancy
  H   H1        1.0  0.9871167303746374  0.4604777550188983  0.26736817664817114  1.0000
  H   H2        1.0  0.012883268853568523  0.5395222456901694  0.7326318235250209  1.0000
  H   H3        1.0  0.9246164336368184  0.5817399116958236  0.4171562203182243  1.0000
  H   H4        1.0  0.07538356529480475  0.4182600874976469  0.5828437791970794  1.0000
  H   H5        1.0  0.2815483513172673  0.322287072676441  0.3669345483562909  1.0000
  H   H6        1.0  0.7184516478949714  0.6777129266262615  0.6330654518153468  1.0000
  H   H7        1.0  0.33947916374651643  0.20117440697219183  0.21794271390668685  1.0000
  H   H8        1.0  0.6605208370957917  0.7988255937373483  0.7820572862654239  1.0000
  H   H9        1.0  0.7668588712863706  0.8489697719357495  0.0959944347866482  1.0000
  H   H10       1.0  0.23314112955593747  0.15103022877379058  0.9040055653854626  1.0000
  H   H11       1.0  0.7703096758968754  0.6008777646547004  0.08416209723884374  1.0000
  H   H12       1.0  0.22969032333133071  0.39912223605436714  0.9158379029343483  1.0000
  H   H13       1.0  0.076165461831619  0.02401938212562047  0.09381328947639808  1.0000
  H   H14       1.0  0.9238345373806196  0.975980617177082  0.9061867106952396  1.0000
  H   H15       1.0  0.3299188630726302  0.9224337219007123  0.09227072745045951  1.0000
  H   H16       1.0  0.6700811361396084  0.07756627740199017  0.9077292727211781  1.0000
  H   H17       1.0  0.3356575477041425  0.5693392686118254  0.07945484916325697  1.0000
  H   H18       1.0  0.6643424515080961  0.4306607306908771  0.9205451510083807  1.0000
  H   H19       1.0  0.10339115585744382  0.45267928000048296  0.1001098362841127  1.0000
  H   H20       1.0  0.8966088449688969  0.547320719302692  0.8998901638864437  1.0000
  H   H21       1.0  0.7793383847366389  0.005323863892501264  0.3503160383482489  1.0000
  H   H22       1.0  0.22066161610566926  0.9946761368170387  0.6496839618238618  1.0000
  H   H23       1.0  0.38412876208810526  0.8891650133466803  0.5196042397526205  1.0000
  H   H24       1.0  0.615871237140101  0.11083498736238734  0.4803957604205716  1.0000
  C   C1        1.0  0.6675301180049036  0.32354197400211915  0.2342849780990625  1.0000
  C   C2        1.0  0.33246988255678905  0.6764580265981891  0.7657150214167144  1.0000
  C   C3        1.0  0.8333612956081244  0.43042597940119115  0.28932302302024615  1.0000
  C   C4        1.0  0.1666387036200816  0.5695740213078764  0.7106769771529459  1.0000
  C   C5        1.0  0.7990105932766656  0.49834899123718396  0.3724365910185169  1.0000
  C   C6        1.0  0.20098940595154066  0.5016510094718836  0.6275634091546752  1.0000
  C   C7        1.0  0.6009369310469659  0.4583822036502795  0.40027516543701935  1.0000
  C   C8        1.0  0.3990630681812403  0.5416177970587882  0.5997248347361728  1.0000
  C   C9        1.0  0.43462632090025194  0.3512534941194122  0.34420604325802223  1.0000
  C   C10       1.0  0.5653736799420563  0.6487465065901279  0.6557939569140886  1.0000
  C   C11       1.0  0.4679252896525408  0.2842337869423343  0.2613500542514589  1.0000
  C   C12       1.0  0.5320747111737999  0.7157662123608406  0.7386499459190975  1.0000
  C   C13       1.0  0.06912505835808944  0.7363243922737478  0.09275919878375444  1.0000
  C   C14       1.0  0.9308749405735338  0.26367560691972275  0.9072408007315493  1.0000
  C   C15       1.0  0.09166050147798731  0.9417850763019964  0.4274317386257998  1.0000
  C   C16       1.0  0.9083394993643209  0.058214924407543875  0.572568261546311  1.0000
  C   C17       1.0  0.8762286895694467  0.0030477060537461137  0.4156152603967948  1.0000
  C   C18       1.0  0.1237713096427921  0.9969522932489563  0.5843847397748428  1.0000
  C   C19       1.0  0.21635544986068994  0.9381327578341357  0.5110323683290825  1.0000
  C   C20       1.0  0.7836445509816181  0.061867242875404405  0.48896763184302827  1.0000
  N   N1        1.0  0.5826111957821926  0.5313241659770933  0.48585571506858244  1.0000
  N   N2        1.0  0.4173888050441482  0.4686758333260817  0.514144285101974  1.0000
  N   N3        1.0  0.8544888321168966  0.7274108292078468  0.09491880076689277  1.0000
  N   N4        1.0  0.14551116709534206  0.2725891700948557  0.9050811994047449  1.0000
  N   N5        1.0  0.1653582217708212  0.9041108112422421  0.08926701687712067  1.0000
  N   N6        1.0  0.834641777160802  0.09588918795122842  0.910732982638183  1.0000
  N   N7        1.0  0.1837809722582761  0.5773496484755039  0.09591926369318017  1.0000
  N   N8        1.0  0.8162190266893147  0.4226503521243319  0.9040807358236781  1.0000
  O   O1        1.0  0.6039024593684478  0.05321017345209686  0.10877625999057655  1.0000
  O   O2        1.0  0.3960975398597584  0.9467898272569707  0.8912237401826155  1.0000
  O   O3        1.0  0.9416018660619685  0.24543462838179506  0.12689294670116308  1.0000
  O   O4        1.0  0.058398134780339825  0.7545653723277452  0.8731070534709477  1.0000
  O   O5        1.0  0.5897072049375299  0.3794530546947873  0.06844477344977487  1.0000
  O   O6        1.0  0.41029279590477824  0.6205469460147528  0.9315552267223359  1.0000
  S   S1        1.0  0.7030767519964078  0.24373275149731172  0.12633795723939015  1.0000
  S   S2        1.0  0.2969232488299331  0.7562672478058633  0.8736620429311662  1.0000
  Br  Br1       1.0  0.21764138370458766  0.8580762846360087  0.3274519739715107  1.0000
  Br  Br2       1.0  0.7823586168411376  0.14192371455793432  0.6725480255427118  1.0000
