data_image0
_chemical_formula_structural       H40B12C12N4Cl14
_chemical_formula_sum              "H40 B12 C12 N4 Cl14"
_cell_length_a       10.179549923722385
_cell_length_b       10.326177599398006
_cell_length_c       11.565984023036147
_cell_angle_alpha    70.12019809393868
_cell_angle_beta     65.43387280944141
_cell_angle_gamma    63.6226148373806

_space_group_name_H-M_alt    "P 1"
_space_group_IT_number       1

loop_
  _space_group_symop_operation_xyz
  'x, y, z'

loop_
  _atom_site_type_symbol
  _atom_site_label
  _atom_site_symmetry_multiplicity
  _atom_site_fract_x
  _atom_site_fract_y
  _atom_site_fract_z
  _atom_site_occupancy
  H   H1        1.0  0.4889524547394096  0.023838732081219213  0.2928633911027419  1.0000
  H   H2        1.0  0.5110475446775772  0.9761612682479026  0.7071366092688122  1.0000
  H   H3        1.0  0.4571237843227345  0.1975791501484284  0.4066401277095091  1.0000
  H   H4        1.0  0.5428762154571612  0.8024208503890389  0.5933598716936277  1.0000
  H   H5        1.0  0.36253383765412345  0.27718711234706495  0.2839127249715146  1.0000
  H   H6        1.0  0.6374661626150572  0.7228128871091456  0.7160872744330445  1.0000
  H   H7        1.0  0.5408028634719182  0.29814514912202494  0.25427717241068715  1.0000
  H   H8        1.0  0.45919713630797726  0.7018548514154425  0.7457228269924496  1.0000
  H   H9        1.0  0.7577527323619228  0.8937460758680825  0.2529143956975807  1.0000
  H   H10       1.0  0.2422472670550638  0.10625392446103946  0.7470856046739734  1.0000
  H   H11       1.0  0.6743180457301698  0.9799541559382868  0.391924252760339  1.0000
  H   H12       1.0  0.32568195417610185  0.020045843309578197  0.6080757476126374  1.0000
  H   H13       1.0  0.7835960883750318  0.05965817767865157  0.2409598286092064  1.0000
  H   H14       1.0  0.21640391189414868  0.9403418217775591  0.7590401707953528  1.0000
  H   H15       1.0  0.6690901125556132  0.18887792316756494  0.06417616335762452  1.0000
  H   H16       1.0  0.33090988735065846  0.8111220760803001  0.935823837015352  1.0000
  H   H17       1.0  0.4894139089554604  0.1788892936364648  0.0825241029851806  1.0000
  H   H18       1.0  0.5105860908244353  0.8211107069010025  0.9174758964179561  1.0000
  H   H19       1.0  0.6603294794034392  0.016358285120571532  0.07062413232650737  1.0000
  H   H20       1.0  0.33967052001354725  0.9836417152085504  0.9293758680450468  1.0000
  H   H21       1.0  0.26300343332501164  0.8123117120774522  0.3775190886059843  1.0000
  H   H22       1.0  0.7369965669441688  0.18768828737875815  0.6224809107985749  1.0000
  H   H23       1.0  0.9904887490823117  0.9257804704080578  0.41257288284567606  1.0000
  H   H24       1.0  0.009511250334675203  0.07421952992106398  0.5874271175258781  1.0000
  H   H25       1.0  0.036203712828575874  0.7748736496394029  0.5412779171527424  1.0000
  H   H26       1.0  0.9637962879326  0.22512635090112287  0.4587220822497581  1.0000
  H   H27       1.0  0.9835344538593317  0.751864711611798  0.4212482640794668  1.0000
  H   H28       1.0  0.01646554604693988  0.24813528763606701  0.5787517362935096  1.0000
  H   H29       1.0  0.1705308654670157  0.7498066930461783  0.19425885741495857  1.0000
  H   H30       1.0  0.829469134439256  0.2501933062016868  0.8057411429580178  1.0000
  H   H31       1.0  0.34893072829782956  0.7711168414932094  0.16322533643694803  1.0000
  H   H32       1.0  0.6510692711191571  0.2288831588359125  0.8367746639346062  1.0000
  H   H33       1.0  0.17060323903258615  0.9240177610734475  0.19492092592881505  1.0000
  H   H34       1.0  0.8293967603844006  0.0759822392556743  0.8050790744427392  1.0000
  H   H35       1.0  0.27398083632793857  0.5660434421572307  0.49602993171783333  1.0000
  H   H36       1.0  0.7260191635783332  0.4339565570906344  0.503970068655143  1.0000
  H   H37       1.0  0.41229631291530483  0.5697616107213496  0.33635894411865347  1.0000
  H   H38       1.0  0.587703686864591  0.4302383898161178  0.6636410552844834  1.0000
  H   H39       1.0  0.23889195729456777  0.5387892969944573  0.3673599019407429  1.0000
  H   H40       1.0  0.7611080424853279  0.46121070354301  0.6326400974623938  1.0000
  B   B1        1.0  0.8283615474036742  0.6169979267968924  0.07856294648164304  1.0000
  B   B2        1.0  0.1716384533575017  0.38300207374363326  0.9214370529208574  1.0000
  B   B3        1.0  0.09429737637779037  0.35144838480583884  0.09391535290083688  1.0000
  B   B4        1.0  0.9057026235284813  0.6485516144420261  0.9060846474721397  1.0000
  B   B5        1.0  0.9971150618989  0.6654829969436051  0.9993656696337468  1.0000
  B   B6        1.0  0.002884937518086783  0.33451700338551676  0.0006343307378072182  1.0000
  B   B7        1.0  0.1612166026667025  0.5016957548546613  0.00897002721167529  1.0000
  B   B8        1.0  0.8387833967502841  0.4983042454744605  0.991029973159879  1.0000
  B   B9        1.0  0.8887719468627471  0.4230700608168943  0.1370342366926278  1.0000
  B   B10       1.0  0.11122805291714867  0.5769299397205732  0.8629657627105091  1.0000
  B   B11       1.0  0.9867504527123199  0.5263479746406772  0.14214240218433566  1.0000
  B   B12       1.0  0.013249547067575898  0.4736520258967902  0.8578575972188011  1.0000
  C   C1        1.0  0.4736085446363759  0.22535644013863887  0.30258109460046867  1.0000
  C   C2        1.0  0.5263914547806107  0.7746435601904832  0.6974189057710853  1.0000
  C   C3        1.0  0.704852304275993  0.9979831888202348  0.2865970009628194  1.0000
  C   C4        1.0  0.2951476955039024  0.0020168117172326178  0.7134029984403173  1.0000
  C   C5        1.0  0.597612444998576  0.12016963838461082  0.10588554663655486  1.0000
  C   C6        1.0  0.4023875552706048  0.8798303610715996  0.8941144527680043  1.0000
  C   C7        1.0  0.04283205547670769  0.8059686581439719  0.43912203400680117  1.0000
  C   C8        1.0  0.9571679443031881  0.1940313423934955  0.5608779653963356  1.0000
  C   C9        1.0  0.22539550529239627  0.8041334145147243  0.2173088072473545  1.0000
  C   C10       1.0  0.7746044951058708  0.1958665858174559  0.7826911931235633  1.0000
  C   C11       1.0  0.28938156382149194  0.5960320971155562  0.3921347310687114  1.0000
  C   C12       1.0  0.7106184355954949  0.4039679032135658  0.6078652693028427  1.0000
  N   N1        1.0  0.5618324862726995  0.08743461204576912  0.24893465191718286  1.0000
  N   N2        1.0  0.43816751314428704  0.9125653882833528  0.7510653484543713  1.0000
  N   N3        1.0  0.2082441144959443  0.7576578270498529  0.3579298795667664  1.0000
  N   N4        1.0  0.7917558852839516  0.2423421734876145  0.6420701198363703  1.0000
  Cl  Cl1       1.0  0.6464217380077069  0.7371623528081567  0.1634108959016402  1.0000
  Cl  Cl2       1.0  0.3535782617721888  0.2628376477293107  0.8365891035014966  1.0000
  Cl  Cl3       1.0  0.18913600600282737  0.19382110608909964  0.19543969845007353  1.0000
  Cl  Cl4       1.0  0.8108639939034442  0.8061788931587655  0.804560301922903  1.0000
  Cl  Cl5       1.0  0.7732550312541916  0.3402650783230744  0.2820758321394422  1.0000
  Cl  Cl6       1.0  0.22674496852570425  0.6597349222143929  0.7179241672636946  1.0000
  Cl  Cl7       1.0  0.9967239396434104  0.8400080049590662  0.9971662827915205  1.0000
  Cl  Cl8       1.0  0.0032760597735763466  0.1599919953700555  0.0028337175800336534  1.0000
  Cl  Cl9       1.0  0.9736326392304271  0.5539151964254189  0.29247649693407285  1.0000
  Cl  Cl10      1.0  0.02636736067584463  0.4460848028224461  0.7075235034389036  1.0000
  Cl  Cl11      1.0  0.3304467135491441  0.5052328614625001  0.018665652844528154  1.0000
  Cl  Cl12      1.0  0.6695532863571276  0.4947671377853649  0.9813343475284484  1.0000
  Cl  Cl13      1.0  0.351043159181035  0.9148758939108391  0.42144683588507587  1.0000
  Cl  Cl14      1.0  0.6489568405988607  0.08512410662662812  0.578553163518061  1.0000
