data_image0
_chemical_formula_structural       H52C60N16O4
_chemical_formula_sum              "H52 C60 N16 O4"
_cell_length_a       5.841027077609887
_cell_length_b       14.266250840705016
_cell_length_c       15.339927140314318
_cell_angle_alpha    94.75507451171336
_cell_angle_beta     98.28893070470752
_cell_angle_gamma    98.31451661439598

_space_group_name_H-M_alt    "P 1"
_space_group_IT_number       1

loop_
  _space_group_symop_operation_xyz
  'x, y, z'

loop_
  _atom_site_type_symbol
  _atom_site_label
  _atom_site_symmetry_multiplicity
  _atom_site_fract_x
  _atom_site_fract_y
  _atom_site_fract_z
  _atom_site_occupancy
  H   H1        1.0  0.13329488295179218  0.8775512078194326  0.10344090616260186  1.0000
  H   H2        1.0  0.8667051166928609  0.12244879239129038  0.8965590940524585  1.0000
  H   H3        1.0  0.1961400306835313  0.5673925514088154  0.08835384675235261  1.0000
  H   H4        1.0  0.8038599686646641  0.4326074480895367  0.9116461533910446  1.0000
  H   H5        1.0  0.10879491085387434  0.7161258211089083  0.08049287029608214  1.0000
  H   H6        1.0  0.8912050888066504  0.28387417910225987  0.9195071292680173  1.0000
  H   H7        1.0  0.6771553839793221  0.6166859398737449  0.969601249605209  1.0000
  H   H8        1.0  0.32284461566533085  0.3833140603369781  0.030398750609851477  1.0000
  H   H9        1.0  0.6079895866218449  0.9163067293915831  0.9808382039315149  1.0000
  H   H10       1.0  0.39201041474980014  0.08369327081160859  0.019161796383676884  1.0000
  H   H11       1.0  0.8179840929053689  0.7834049865809125  0.9383951745194443  1.0000
  H   H12       1.0  0.18201590846627608  0.2165950136222791  0.06160482579574751  1.0000
  H   H13       1.0  0.39219952168381517  0.9056485163675396  0.24945230798685422  1.0000
  H   H14       1.0  0.6078004776643804  0.09435148313081251  0.7505476921565428  1.0000
  H   H15       1.0  0.4914062876913137  0.846226944300142  0.6578024379048125  1.0000
  H   H16       1.0  0.5085937119533391  0.153773055910581  0.34219756231024795  1.0000
  H   H17       1.0  0.6847686737107462  0.8733699355266076  0.8086132320342599  1.0000
  H   H18       1.0  0.3152313276608987  0.1266300646765839  0.19138676828093193  1.0000
  H   H19       1.0  0.5737001143529056  0.9235879354003304  0.3985852840046894  1.0000
  H   H20       1.0  0.42629988499528976  0.0764120640980217  0.6014147161387078  1.0000
  H   H21       1.0  0.9792319664012845  0.8002811371884673  0.44077238272350044  1.0000
  H   H22       1.0  0.020768033243368306  0.19971886302225567  0.5592276174915599  1.0000
  H   H23       1.0  0.6449459247289838  0.7449248191724659  0.31611714619803244  1.0000
  H   H24       1.0  0.35505407461921157  0.25507518032588616  0.6838828539453647  1.0000
  H   H25       1.0  0.08267591044438033  0.9583591376013919  0.6049727324862608  1.0000
  H   H26       1.0  0.9173240892002726  0.04164086260933112  0.39502726772879965  1.0000
  H   H27       1.0  0.702866946381942  0.7779438642259238  0.1611131356427968  1.0000
  H   H28       1.0  0.2971330532785827  0.22205613598524435  0.8388868639213026  1.0000
  H   H29       1.0  0.05242627921991309  0.9316620177361237  0.9212067542930521  1.0000
  H   H30       1.0  0.9475737201441542  0.0683379817626735  0.07879324519938401  1.0000
  H   H31       1.0  0.41512148588910364  0.00013611776059799916  0.8658818796007043  1.0000
  H   H32       1.0  0.584878513771421  0.9998638824505701  0.13411811996339498  1.0000
  H   H33       1.0  0.3384371541523317  0.6154581165274142  0.2611052815294072  1.0000
  H   H34       1.0  0.6615628454923211  0.38454188368330877  0.7388947186856532  1.0000
  H   H35       1.0  0.717140543985679  0.5092755822278963  0.36701305492237635  1.0000
  H   H36       1.0  0.28285945565897397  0.4907244179828268  0.6329869452926841  1.0000
  H   H37       1.0  0.1675156486247012  0.7317205235074836  0.5771078757172303  1.0000
  H   H38       1.0  0.8324843510358235  0.26827947670368446  0.422892123846869  1.0000
  H   H39       1.0  0.7971287908014668  0.681790825445485  0.4803362697170613  1.0000
  H   H40       1.0  0.2028712088431861  0.3182091747652381  0.5196637304979992  1.0000
  H   H41       1.0  0.5627066934913518  0.6276806902704304  0.6936343294147909  1.0000
  H   H42       1.0  0.4372933078802931  0.37231930993276113  0.306365670900401  1.0000
  H   H43       1.0  0.08397565039954127  0.5608861785936257  0.4701949510245737  1.0000
  H   H44       1.0  0.9160243492609834  0.4391138216175426  0.5298050485395256  1.0000
  H   H45       1.0  0.7241379187505614  0.5170946958958116  0.08651326783292637  1.0000
  H   H46       1.0  0.2758620808940914  0.48290530431491147  0.913486732382134  1.0000
  H   H47       1.0  0.5027365704963428  0.4811222089356154  0.20994446031699293  1.0000
  H   H48       1.0  0.49726342914831007  0.5188777912751075  0.7900555398980674  1.0000
  H   H49       1.0  0.8271241964865578  0.6514912789850618  0.8415205883553148  1.0000
  H   H50       1.0  0.1728758028775095  0.34850872051373544  0.1584794111371213  1.0000
  H   H51       1.0  0.2502660929766831  0.7172871166470215  0.8480767997173434  1.0000
  H   H52       1.0  0.7497339083949619  0.28271288355617025  0.15192320059784836  1.0000
  C   C1        1.0  0.3464558938449147  0.8244820582085496  0.033902828842743225  1.0000
  C   C2        1.0  0.653544107230273  0.17551794128227113  0.9660971714007853  1.0000
  C   C3        1.0  0.3866677677953998  0.6568075797551283  0.027706344677153993  1.0000
  C   C4        1.0  0.6133322318492531  0.34319242045559484  0.9722936555379064  1.0000
  C   C5        1.0  0.2655579017108932  0.7310537384329276  0.05015764561675755  1.0000
  C   C6        1.0  0.7344420976373023  0.26894626106542446  0.9498423545266395  1.0000
  C   C7        1.0  0.585741487109593  0.6753773664889128  0.9864037014925674  1.0000
  C   C8        1.0  0.41425851225447424  0.32462263300988425  0.013596297999868622  1.0000
  C   C9        1.0  0.5456438109810529  0.8434919368473253  0.9927088194418571  1.0000
  C   C10       1.0  0.45435618866359995  0.1565080633633976  0.007291180773203429  1.0000
  C   C11       1.0  0.6617708914929937  0.7685491504520083  0.9693964542778821  1.0000
  C   C12       1.0  0.33822910816753105  0.23145084975915997  0.03060354528621739  1.0000
  C   C13       1.0  0.21391230223154123  0.852224168314193  0.353288787276613  1.0000
  C   C14       1.0  0.7860876971166542  0.1477758311841591  0.646711212866784  1.0000
  C   C15       1.0  0.8572994599330171  0.911846164022422  0.6986277533503088  1.0000
  C   C16       1.0  0.1427005394310502  0.08815383547637518  0.3013722461421273  1.0000
  C   C17       1.0  0.22813833244804463  0.8686221403607945  0.2651938295696897  1.0000
  C   C18       1.0  0.7718616671966083  0.13137785984992847  0.7348061706453707  1.0000
  C   C19       1.0  0.6477171099401249  0.8802638636902783  0.6337421144573792  1.0000
  C   C20       1.0  0.35228288972039973  0.11973613652088974  0.36625788510672036  1.0000
  C   C21       1.0  0.8491593519652396  0.9039216172230288  0.7887228476134787  1.0000
  C   C22       1.0  0.15084064912581974  0.09607838226823695  0.21127715197908878  1.0000
  C   C23       1.0  0.4218868163299274  0.8816469683497314  0.4193225038940316  1.0000
  C   C24       1.0  0.5781131833147255  0.11835303186099165  0.5806774963210288  1.0000
  C   C25       1.0  0.998097234634758  0.8088237383466638  0.37219666832920517  1.0000
  C   C26       1.0  0.0019027664404297798  0.19117626114415698  0.6278033319143234  1.0000
  C   C27       1.0  0.8129476518699728  0.7802602023158519  0.30315526562233047  1.0000
  C   C28       1.0  0.1870523477905519  0.2197397978953162  0.6968447339417688  1.0000
  C   C29       1.0  0.07164032831362802  0.9516760316868796  0.6748254415860613  1.0000
  C   C30       1.0  0.9283596730738889  0.048323968516756875  0.3251745580781694  1.0000
  C   C31       1.0  0.844400922232394  0.7984053917100172  0.21715821774910882  1.0000
  C   C32       1.0  0.15559907885866522  0.20159460778124852  0.7828417818434587  1.0000
  C   C33       1.0  0.050270765656437025  0.9357370187596745  0.8504263304693583  1.0000
  C   C34       1.0  0.949729233988216  0.06426298145104846  0.14957366974570208  1.0000
  C   C35       1.0  0.253626282642207  0.9739161554152674  0.8197790733492771  1.0000
  C   C36       1.0  0.7463737167059885  0.0260838440830846  0.18022092679411994  1.0000
  C   C37       1.0  0.04591525649389253  0.5651687940508033  0.3262184222004847  1.0000
  C   C38       1.0  0.9540847431507602  0.43483120615991966  0.6737815780145757  1.0000
  C   C39       1.0  0.8470290141272894  0.6730546932123191  0.6235115425434645  1.0000
  C   C40       1.0  0.1529709872443557  0.32694530699087254  0.37648845777172735  1.0000
  C   C41       1.0  0.1531690001651567  0.5851087083367208  0.2521508298101359  1.0000
  C   C42       1.0  0.8468309994794961  0.4148912918740023  0.7478491704049246  1.0000
  C   C43       1.0  0.806718091462437  0.5266989752107561  0.31130110186772697  1.0000
  C   C44       1.0  0.19328190819808772  0.47330102500041205  0.6886988976963725  1.0000
  C   C45       1.0  0.08647915737748417  0.7113691903879432  0.6343872517423714  1.0000
  C   C46       1.0  0.9135208419707113  0.288630809110409  0.3656127484010256  1.0000
  C   C47       1.0  0.7104910982106564  0.6583919834050515  0.5355220408174255  1.0000
  C   C48       1.0  0.2895089031768605  0.3416080167985853  0.46447795884680526  1.0000
  C   C49       1.0  0.7501076285351815  0.6521263256922513  0.6997310712335274  1.0000
  C   C50       1.0  0.24989237112534304  0.3478736745189168  0.30026892833057195  1.0000
  C   C51       1.0  0.1775492810299894  0.5800267416377032  0.4153428338839995  1.0000
  C   C52       1.0  0.8224507186146633  0.4199732585730198  0.5846571663310609  1.0000
  C   C53       1.0  0.8095698228047687  0.5309000884432337  0.15523307266644765  1.0000
  C   C54       1.0  0.19043017858274816  0.46909991176040305  0.8447669269977832  1.0000
  C   C55       1.0  0.6879112621750404  0.5105913883372385  0.22475979517938588  1.0000
  C   C56       1.0  0.3120887374696124  0.4894086118734844  0.7752402050356745  1.0000
  C   C57       1.0  0.8956190673066957  0.6669943648672654  0.7809889668767621  1.0000
  C   C58       1.0  0.10438093406494939  0.33300563533592625  0.21901103343842968  1.0000
  C   C59       1.0  0.13264085766976555  0.7042214274393465  0.7846747582077415  1.0000
  C   C60       1.0  0.8673591416943016  0.29577857205945074  0.21532524128469455  1.0000
  N   N1        1.0  0.04802790100146179  0.8431526957621702  0.1988384396986686  1.0000
  N   N2        1.0  0.9519720986431912  0.15684730444855285  0.8011615605163918  1.0000
  N   N3        1.0  0.4304456899183791  0.8581882638736162  0.49931783872812047  1.0000
  N   N4        1.0  0.5695543111726802  0.14181173561764937  0.500682160864447  1.0000
  N   N5        1.0  0.2654554423976328  0.9820766692820714  0.7335702811165582  1.0000
  N   N6        1.0  0.73454455724702  0.017923330928651636  0.2664297190985022  1.0000
  N   N7        1.0  0.6463229062097997  0.8924728326495881  0.5508371976739612  1.0000
  N   N8        1.0  0.35367709345072496  0.10752716756158001  0.44916280189013824  1.0000
  N   N9        1.0  0.039552822205257646  0.566913168837308  0.16912455317412906  1.0000
  N   N10       1.0  0.96044717886993  0.43308683065351267  0.8308754470693994  1.0000
  N   N11       1.0  0.3994035093471683  0.6130792152646558  0.43103092935043275  1.0000
  N   N12       1.0  0.6005964903133565  0.38692078494651244  0.5689690702136666  1.0000
  N   N13       1.0  0.49240018608394354  0.6187224992877233  0.5199117690923739  1.0000
  N   N14       1.0  0.507599813576581  0.3812775009234447  0.4800882304717255  1.0000
  N   N15       1.0  0.22725623896895128  0.7270371296667739  0.7129364584927752  1.0000
  N   N16       1.0  0.7727437603792442  0.2729628698315781  0.28706354165062187  1.0000
  O   O1        1.0  0.23494074818328045  0.8980170305896319  0.057330425068395106  1.0000
  O   O2        1.0  0.7650592514772442  0.10198296962153623  0.9426695744957042  1.0000
  O   O3        1.0  0.3142790371293756  0.5662525061791581  0.045105674929320196  1.0000
  O   O4        1.0  0.6857209625311491  0.43374749403201  0.9548943246347792  1.0000
