data_image0
_chemical_formula_structural       H58C64N4O10F6S2Cl2Br2
_chemical_formula_sum              "H58 C64 N4 O10 F6 S2 Cl2 Br2"
_cell_length_a       10.186892714254066
_cell_length_b       11.833114803814297
_cell_length_c       13.528659942386613
_cell_angle_alpha    68.87687482527124
_cell_angle_beta     82.66708972666784
_cell_angle_gamma    80.38992605005086

_space_group_name_H-M_alt    "P 1"
_space_group_IT_number       1

loop_
  _space_group_symop_operation_xyz
  'x, y, z'

loop_
  _atom_site_type_symbol
  _atom_site_label
  _atom_site_symmetry_multiplicity
  _atom_site_fract_x
  _atom_site_fract_y
  _atom_site_fract_z
  _atom_site_occupancy
  H   H1        1.0  0.18766339946346033  0.4497799914474142  0.20686542304225866  1.0000
  H   H2        1.0  0.8123366002171895  0.5502200091696975  0.7931345767810525  1.0000
  H   H3        1.0  0.25481864538288285  0.5306626574923408  0.016150234312958704  1.0000
  H   H4        1.0  0.745181354297767  0.4693373431247709  0.9838497655103525  1.0000
  H   H5        1.0  0.06108013811788034  0.26573871277546157  0.9631960935067704  1.0000
  H   H6        1.0  0.9389198615627695  0.7342612878416499  0.036803906316540874  1.0000
  H   H7        1.0  0.11081327654999083  0.04650943244647303  0.28147818526044427  1.0000
  H   H8        1.0  0.8891867241116481  0.9534905681712814  0.7185218145659914  1.0000
  H   H9        1.0  0.9508537570455422  0.9932911115412871  0.31383687837692625  1.0000
  H   H10       1.0  0.04914624353931822  0.006708888758004104  0.6861631222440582  1.0000
  H   H11       1.0  0.9513634569110244  0.1204035764740722  0.42613743454307346  1.0000
  H   H12       1.0  0.0486365429381455  0.8795964232865273  0.573862565278737  1.0000
  H   H13       1.0  0.7934470794785131  0.3140120694604653  0.2894844281084129  1.0000
  H   H14       1.0  0.20655292012535784  0.6859879308381829  0.7105155725094472  1.0000
  H   H15       1.0  0.6878260030120621  0.16122636640502594  0.44337597348562957  1.0000
  H   H16       1.0  0.3121739967603289  0.8387736330371102  0.5566240271307298  1.0000
  H   H17       1.0  0.7290589868663722  0.049238387353006875  0.3815723977673818  1.0000
  H   H18       1.0  0.27094101273749877  0.9507616129456414  0.6184276028504784  1.0000
  H   H19       1.0  0.5917548254639053  0.18168813797367392  0.23120235738016465  1.0000
  H   H20       1.0  0.4082451742167446  0.8183118626434376  0.7687976424431466  1.0000
  H   H21       1.0  0.43472440852970445  0.11980665999750019  0.4496802517057459  1.0000
  H   H22       1.0  0.5652755910741667  0.8801933403011479  0.5503197489121143  1.0000
  H   H23       1.0  0.49283293903835007  0.016522592561112694  0.37961359691605484  1.0000
  H   H24       1.0  0.5071670606422997  0.9834774080559987  0.6203864029072564  1.0000
  H   H25       1.0  0.37021713645356974  0.1440854412776702  0.3268406569830237  1.0000
  H   H26       1.0  0.6297828631503013  0.855914559020978  0.6731593436348363  1.0000
  H   H27       1.0  0.3861477567817463  0.6451021968560301  0.04396868000222767  1.0000
  H   H28       1.0  0.613852242990645  0.35489780258610604  0.9560313206141318  1.0000
  H   H29       1.0  0.2938223276315669  0.8133736592497083  0.11458420402444748  1.0000
  H   H30       1.0  0.7061776731985924  0.18662634051153396  0.8854157958004875  1.0000
  H   H31       1.0  0.4216146430296082  0.5920271568846048  0.4262915064874354  1.0000
  H   H32       1.0  0.5783853568195616  0.4079728428759945  0.5737084933343751  1.0000
  H   H33       1.0  0.8074049775881744  0.3539910658905707  0.46610673348613174  1.0000
  H   H34       1.0  0.19259502209247528  0.646008934726541  0.5338932663371795  1.0000
  H   H35       1.0  0.659614494944167  0.5508165193115783  0.43956895431423576  1.0000
  H   H36       1.0  0.3403855049050029  0.4491834804490211  0.5604310455075747  1.0000
  H   H37       1.0  0.990682202493156  0.7492513740077306  0.29064998644238693  1.0000
  H   H38       1.0  0.009317797356013891  0.250748625752869  0.7093500133794236  1.0000
  H   H39       1.0  0.13977585406563575  0.5539079812063492  0.3162163187033658  1.0000
  H   H40       1.0  0.8602241456150143  0.4460920194107623  0.6837836811199456  1.0000
  H   H41       1.0  0.6709748225818195  0.8060700205153413  0.2704083173373165  1.0000
  H   H42       1.0  0.3290251770988303  0.19392998010177037  0.7295916824859947  1.0000
  H   H43       1.0  0.7759895719509418  0.8552318353044811  0.3374843881148365  1.0000
  H   H44       1.0  0.22401042789822825  0.14476816445611843  0.662515611706974  1.0000
  H   H45       1.0  0.6436391210186926  0.7701523065325153  0.4097834454688125  1.0000
  H   H46       1.0  0.3563608788304773  0.22984769322808418  0.590216554352998  1.0000
  H   H47       1.0  0.649181870776672  0.9823350548539835  0.8872994071079033  1.0000
  H   H48       1.0  0.350818128995719  0.017664944588152754  0.11270059350845607  1.0000
  H   H49       1.0  0.6084685939889971  0.8317460741588345  0.9344729062835399  1.0000
  H   H50       1.0  0.39153140569165285  0.16825392645827694  0.06552709353977149  1.0000
  H   H51       1.0  0.3721194190551533  0.9035494285183877  0.9678494378673854  1.0000
  H   H52       1.0  0.6278805807940164  0.0964505712422119  0.032150561954425054  1.0000
  H   H53       1.0  0.4239396282731971  0.9864032082652986  0.8364888978779174  1.0000
  H   H54       1.0  0.5760603715759727  0.01359679149530068  0.16351110194389326  1.0000
  H   H55       1.0  0.28664640440139283  0.12230033023471346  0.9279515629427078  1.0000
  H   H56       1.0  0.7133535954477769  0.8776996695258861  0.0720484368791029  1.0000
  H   H57       1.0  0.44826491319951267  0.16296635027855028  0.8850820174673613  1.0000
  H   H58       1.0  0.5517350876306465  0.8370336494826922  0.11491798235757349  1.0000
  C   C1        1.0  0.0842044301441688  0.3090828518919491  0.19724833259130675  1.0000
  C   C2        1.0  0.9157955694597022  0.6909171484066993  0.8027516680265533  1.0000
  C   C3        1.0  0.1576598253057442  0.40840264158806816  0.15518779579637607  1.0000
  C   C4        1.0  0.8423401743749056  0.5915973590290433  0.8448122040269351  1.0000
  C   C5        1.0  0.19686490617967445  0.4543925309325861  0.04723898291868953  1.0000
  C   C6        1.0  0.8031350936694954  0.5456074688280134  0.952761016903121  1.0000
  C   C7        1.0  0.1634220606076915  0.4007712759079034  0.9795598332139561  1.0000
  C   C8        1.0  0.8365779390729582  0.5992287247092082  0.020440166609355197  1.0000
  C   C9        1.0  0.0874497264081111  0.3044037681138785  0.018439585627136827  1.0000
  C   C10       1.0  0.9125502734410585  0.6955962316467211  0.9815604141946737  1.0000
  C   C11       1.0  0.046501487941302905  0.25841926026477524  0.12613902045032932  1.0000
  C   C12       1.0  0.9534985117393471  0.7415807403523363  0.873860979372982  1.0000
  C   C13       1.0  0.9580672882789523  0.15735370215210212  0.17182270785348583  1.0000
  C   C14       1.0  0.041932711570217614  0.8426462976084973  0.8281772919683248  1.0000
  C   C15       1.0  0.0029460362440297764  0.07423823864614432  0.28120310816713356  1.0000
  C   C16       1.0  0.99705396343662  0.925761761970967  0.7187968916561778  1.0000
  C   C17       1.0  0.9538700896448724  0.16334028370455267  0.3398202044255447  1.0000
  C   C18       1.0  0.04612991101676685  0.836659716913202  0.6601797954008908  1.0000
  C   C19       1.0  0.8145553816860072  0.21658797290434484  0.2990281840827978  1.0000
  C   C20       1.0  0.18544461816316274  0.7834120268562547  0.7009718157390127  1.0000
  C   C21       1.0  0.7022340700256852  0.14776461409233818  0.3662636084328449  1.0000
  C   C22       1.0  0.2977659295781858  0.8522353862063101  0.6337363921850152  1.0000
  C   C23       1.0  0.5715605335172704  0.1888545851128696  0.3106198780295731  1.0000
  C   C24       1.0  0.4284394662551205  0.8111454143292668  0.6893801225867862  1.0000
  C   C25       1.0  0.4604296369474581  0.11273670015163524  0.3707349077499997  1.0000
  C   C26       1.0  0.5395703629017118  0.8872632996089642  0.6292650920718108  1.0000
  C   C27       1.0  0.9482055013382157  0.08602045190397457  0.09950854979984874  1.0000
  C   C28       1.0  0.0517944983424341  0.913979548713137  0.9004914500234625  1.0000
  C   C29       1.0  0.4930920304170684  0.4004942642504168  0.18696555580025578  1.0000
  C   C30       1.0  0.5069079693553226  0.5995057351917196  0.8130344448161035  1.0000
  C   C31       1.0  0.5047119637621993  0.3777664751653734  0.36356480721076695  1.0000
  C   C32       1.0  0.4952880360869704  0.6222335245952261  0.6364351926110435  1.0000
  C   C33       1.0  0.45017676584425326  0.5063008769871733  0.30580789026948074  1.0000
  C   C34       1.0  0.5498232339281379  0.4936991224549629  0.6941921103468786  1.0000
  C   C35       1.0  0.4414200271681781  0.5203675094645395  0.1995942570060567  1.0000
  C   C36       1.0  0.5585799736619811  0.47963249029670296  0.8004057428188782  1.0000
  C   C37       1.0  0.38836004780477457  0.6311686615607373  0.1279196731267306  1.0000
  C   C38       1.0  0.6116399517990962  0.368831338737911  0.8720803274911295  1.0000
  C   C39       1.0  0.3399022026124688  0.7263094101291478  0.1669874785130863  1.0000
  C   C40       1.0  0.660097797236701  0.2736905896314516  0.8330125213087243  1.0000
  C   C41       1.0  0.35233165736720223  0.7104993794498081  0.2730668963950682  1.0000
  C   C42       1.0  0.6476683424819675  0.28950062031079155  0.7269331034267422  1.0000
  C   C43       1.0  0.4095964772352596  0.6007722459352539  0.34491383334044823  1.0000
  C   C44       1.0  0.5904035224453902  0.39922775468185756  0.6550861664828632  1.0000
  C   C45       1.0  0.9814232262583995  0.44289461663424573  0.38852334280162426  1.0000
  C   C46       1.0  0.0185767744032398  0.5571053839835087  0.6114766570248114  1.0000
  C   C47       1.0  0.8466223931100488  0.440623786396137  0.42502664008203184  1.0000
  C   C48       1.0  0.15337760673912101  0.5593762133644624  0.5749733597397787  1.0000
  C   C49       1.0  0.764321534475672  0.5507338926199254  0.4104584739633584  1.0000
  C   C50       1.0  0.23567846537349785  0.4492661071406741  0.5895415258584522  1.0000
  C   C51       1.0  0.8135409987944047  0.6633505200460023  0.36029243253559584  1.0000
  C   C52       1.0  0.1864590009779864  0.33664947939613377  0.6397075680807636  1.0000
  C   C53       1.0  0.9494418316217792  0.6629125598305148  0.3265344438533781  1.0000
  C   C54       1.0  0.05055816822739061  0.3370874399300847  0.6734655559684324  1.0000
  C   C55       1.0  0.03370152318916061  0.5535535145400758  0.3403839715965876  1.0000
  C   C56       1.0  0.9662984766600092  0.44644648522052355  0.659616028225223  1.0000
  C   C57       1.0  0.7212572194112409  0.7802714936292885  0.3441788563839868  1.0000
  C   C58       1.0  0.27874278026940885  0.21972850698782295  0.6558211434393246  1.0000
  C   C59       1.0  0.5825387782450453  0.9210801091955784  0.9449033377099196  1.0000
  C   C60       1.0  0.41746122135882563  0.07891989110306982  0.055096662907940554  1.0000
  C   C61       1.0  0.43752040759950217  0.9719138113499496  0.9198411433085062  1.0000
  C   C62       1.0  0.5624795922496677  0.02808618841064974  0.08015885651330425  1.0000
  C   C63       1.0  0.39277142575536333  0.0911618941734076  0.9420997972734937  1.0000
  C   C64       1.0  0.6072285749062758  0.908838106444347  0.05790020255294201  1.0000
  N   N1        1.0  0.04623330532064333  0.2565964402884412  0.3075189199242438  1.0000
  N   N2        1.0  0.9537666943600065  0.7434035603286703  0.6924810798990676  1.0000
  N   N3        1.0  0.527837949266688  0.3195220782390352  0.2888725485774623  1.0000
  N   N4        1.0  0.4721620505824819  0.6804779215215644  0.7111274512443482  1.0000
  O   O1        1.0  0.8238752555590658  0.20852352040580316  0.19309137446530786  1.0000
  O   O2        1.0  0.17612474429010408  0.7914764793547963  0.8069086253565027  1.0000
  O   O3        1.0  0.5042034766760317  0.37138260401823125  0.10800410961697075  1.0000
  O   O4        1.0  0.4957965231731382  0.6286173957423683  0.8919958902048398  1.0000
  O   O5        1.0  0.5258964848116944  0.33044477209226125  0.45825519366630635  1.0000
  O   O6        1.0  0.4741035149606965  0.6695552273498749  0.5417448069500531  1.0000
  O   O7        1.0  0.046198291543355245  0.21212420490904463  0.5011526110354112  1.0000
  O   O8        1.0  0.9538017081372946  0.7878757957080669  0.4988473887879  1.0000
  O   O9        1.0  0.2218695219388028  0.32876893260180773  0.37907161517208743  1.0000
  O   O10       1.0  0.7781304779103672  0.6712310671587916  0.6209283846497231  1.0000
  F   F1        1.0  0.8878758818091415  0.15686435720011857  0.008818119711662263  1.0000
  F   F2        1.0  0.1121241188524977  0.8431356434176359  0.9911818801147734  1.0000
  F   F3        1.0  0.07214118669044801  0.03788941485754986  0.07092265764767881  1.0000
  F   F4        1.0  0.9278588131587217  0.9621105849030496  0.9290773421741317  1.0000
  F   F5        1.0  0.8761885110961849  0.9910911589350083  0.14853948923715982  1.0000
  F   F6        1.0  0.12381148850768604  0.008908841363639904  0.8514605113807003  1.0000
  S   S1        1.0  0.08536321830816328  0.30396230765389104  0.4023417797343045  1.0000
  S   S2        1.0  0.9146367814642279  0.6960376917882451  0.5976582208820549  1.0000
  Cl  Cl1       1.0  0.21589658302695158  0.4511756209704948  0.8457296721558942  1.0000
  Cl  Cl2       1.0  0.7841034168222183  0.5488243787901048  0.15427032766591617  1.0000
  Br  Br1       1.0  0.2892427786930898  0.8420531205252314  0.32311134040725215  1.0000
  Br  Br2       1.0  0.7107572211560801  0.15794687923536807  0.6768886594145582  1.0000
