data_image0
_chemical_formula_structural       H48C24N8I8
_chemical_formula_sum              "H48 C24 N8 I8"
_cell_length_a       9.385428972440652
_cell_length_b       8.133129976765439
_cell_length_c       13.344614848215485
_cell_angle_alpha    90.0
_cell_angle_beta     109.47081451281264
_cell_angle_gamma    90.0

_space_group_name_H-M_alt    "P 1"
_space_group_IT_number       1

loop_
  _space_group_symop_operation_xyz
  'x, y, z'

loop_
  _atom_site_type_symbol
  _atom_site_label
  _atom_site_symmetry_multiplicity
  _atom_site_fract_x
  _atom_site_fract_y
  _atom_site_fract_z
  _atom_site_occupancy
  H   H1        1.0  0.7084492074598164  0.6493680926147477  0.02881573331312349  1.0000
  H   H2        1.0  0.2915507924711785  0.14936809241589674  0.4711842661832612  1.0000
  H   H3        1.0  0.29155079216903085  0.3506319077829542  0.971184266624052  1.0000
  H   H4        1.0  0.7084492071576689  0.8506319079818052  0.5288157337539143  1.0000
  H   H5        1.0  0.5360759949923244  0.7545822023664182  0.017494552372699788  1.0000
  H   H6        1.0  0.4639240053119736  0.2545822021675672  0.48250544791850153  1.0000
  H   H7        1.0  0.46392400570319803  0.24541779803128375  0.9825054475670055  1.0000
  H   H8        1.0  0.5360759943168737  0.7454177970005957  0.517494552018674  1.0000
  H   H9        1.0  0.5213583239213202  0.9228318004804538  0.16141446418474134  1.0000
  H   H10       1.0  0.4786416763829776  0.4228318002816027  0.33858553610645997  1.0000
  H   H11       1.0  0.4786416767742021  0.07716819991724826  0.838585535754964  1.0000
  H   H12       1.0  0.5213583236191726  0.5771682001160993  0.6614144646255321  1.0000
  H   H13       1.0  0.6873692234960544  0.9611390082700809  0.27189276145494534  1.0000
  H   H14       1.0  0.31263077574156845  0.46113900807123  0.22810723883372622  1.0000
  H   H15       1.0  0.31263077613279294  0.038860992127620994  0.7281072384822304  1.0000
  H   H16       1.0  0.6873692242605818  0.538860992326472  0.7718927618982658  1.0000
  H   H17       1.0  0.4618190721907787  0.5366516608573657  0.10444503401199415  1.0000
  H   H18       1.0  0.5381809277402162  0.03665166065851465  0.3955549654843906  1.0000
  H   H19       1.0  0.5381809285047436  0.46334833954033633  0.8955549659277112  1.0000
  H   H20       1.0  0.4618190718886311  0.9633483397391873  0.604445034452785  1.0000
  H   H21       1.0  0.6290497810896755  0.42729219991908984  0.10861150115171056  1.0000
  H   H22       1.0  0.3709502192146225  0.9272922001179409  0.3913884991394907  1.0000
  H   H23       1.0  0.3709502185391719  0.5727078004786121  0.8913884987854649  1.0000
  H   H24       1.0  0.6290497814808999  0.07270780027976116  0.6086115008002145  1.0000
  H   H25       1.0  0.9184669077058524  0.8212451170805423  0.2859664951387468  1.0000
  H   H26       1.0  0.08153309222514259  0.3212451168816913  0.21403350435763796  1.0000
  H   H27       1.0  0.08153309192299496  0.17875488208762078  0.7140335047984288  1.0000
  H   H28       1.0  0.9184669084703797  0.6787548822864717  0.7859664955820673  1.0000
  H   H29       1.0  0.9302826180011133  0.6975469980446887  0.1785114136531478  1.0000
  H   H30       1.0  0.06971738230318458  0.1975469978458377  0.32148858663805346  1.0000
  H   H31       1.0  0.06971738269440894  0.3024530023530133  0.8214885862865574  1.0000
  H   H32       1.0  0.9302826176989657  0.8024530025518642  0.6785114140939388  1.0000
  H   H33       1.0  0.6339761548880576  0.7300189308374107  0.3607517178372438  1.0000
  H   H34       1.0  0.36602384541624033  0.23001893186809863  0.13924828245395754  1.0000
  H   H35       1.0  0.3660238447407898  0.26998106833075236  0.6392482820999317  1.0000
  H   H36       1.0  0.633976155279282  0.7699810685296032  0.8607517174857477  1.0000
  H   H37       1.0  0.46198475112476245  0.7056921783368086  0.2532352382885516  1.0000
  H   H38       1.0  0.5380152491795355  0.20569217813795768  0.24676476200264966  1.0000
  H   H39       1.0  0.538015248504085  0.29430782206089334  0.7467647616486239  1.0000
  H   H40       1.0  0.46198475044931187  0.7943078222597444  0.7532352379345257  1.0000
  H   H41       1.0  0.8549089847100868  0.4634004719913375  0.25435861667155746  1.0000
  H   H42       1.0  0.14509101522090825  0.9634004709606495  0.24564138282482725  1.0000
  H   H43       1.0  0.14509101491876067  0.5365995284063644  0.7456413832656181  1.0000
  H   H44       1.0  0.8549089844079389  0.036599528207513464  0.7543586171123482  1.0000
  H   H45       1.0  0.8561751146560909  0.5862543711487905  0.36473284699830116  1.0000
  H   H46       1.0  0.14382488564820703  0.08625437094993964  0.13526715329290015  1.0000
  H   H47       1.0  0.1438248849727565  0.41374562924891134  0.6352671529388744  1.0000
  H   H48       1.0  0.8561751150473152  0.9137456294477623  0.8647328466468052  1.0000
  C   C1        1.0  0.6337935249660966  0.6899342769672094  0.07228358331117804  1.0000
  C   C2        1.0  0.3662064753382013  0.18993427676835853  0.4277164169800233  1.0000
  C   C3        1.0  0.3662064746627508  0.3100657222009535  0.9277164166259976  1.0000
  C   C4        1.0  0.633793525357321  0.8100657223998045  0.5722835829596821  1.0000
  C   C5        1.0  0.6237250201939674  0.8663869236235152  0.2162214030609847  1.0000
  C   C6        1.0  0.3762749801103306  0.3663869246542032  0.28377859723021664  1.0000
  C   C7        1.0  0.3762749794348801  0.1336130755446478  0.7837785968761909  1.0000
  C   C8        1.0  0.6237250205851916  0.6336130757434987  0.7162214027094886  1.0000
  C   C9        1.0  0.5856350045248343  0.5435403162901516  0.12909110252954967  1.0000
  C   C10       1.0  0.4143649957794636  0.043540316091300664  0.37090889776165165  1.0000
  C   C11       1.0  0.414364995477316  0.4564596841075503  0.8709088982024425  1.0000
  C   C12       1.0  0.5856350038493838  0.9564596843064013  0.6290911021755239  1.0000
  C   C13       1.0  0.8585450882244954  0.7301511247164058  0.22589504071089964  1.0000
  C   C14       1.0  0.14145491170649954  0.23015112451755482  0.2741049587854851  1.0000
  C   C15       1.0  0.14145491247102693  0.2698488756812961  0.7741049592288057  1.0000
  C   C16       1.0  0.8585450879223477  0.769848875880147  0.7258950411516905  1.0000
  C   C17       1.0  0.585076477024495  0.7161717797010422  0.27420581127666693  1.0000
  C   C18       1.0  0.41492352221312806  0.21617177950219124  0.22579418901200468  1.0000
  C   C19       1.0  0.4149235226043525  0.28382822069665975  0.7257941886605087  1.0000
  C   C20       1.0  0.5850764774157193  0.7838282208955107  0.7742058109251709  1.0000
  C   C21       1.0  0.8109770089253107  0.5769614740457175  0.27770112148891535  1.0000
  C   C22       1.0  0.18902299100568432  0.07696147507640554  0.22229887800746934  1.0000
  C   C23       1.0  0.18902299177021162  0.42303852512244544  0.7222988784507899  1.0000
  C   C24       1.0  0.8109770086231631  0.9230385253212964  0.7777011219297062  1.0000
  N   N1        1.0  0.7192357413404187  0.8093660901529013  0.1540755185527086  1.0000
  N   N2        1.0  0.28076425896387924  0.3093660911835893  0.34592448173849266  1.0000
  N   N3        1.0  0.28076425828842866  0.19063390901526167  0.8459244813844669  1.0000
  N   N4        1.0  0.7192357406649681  0.6906339092141126  0.6540755181986828  1.0000
  N   N5        1.0  0.6457723078596245  0.5639832958656635  0.24476519200279143  1.0000
  N   N6        1.0  0.35422769207137056  0.06398329566681264  0.2552348074935933  1.0000
  N   N7        1.0  0.354227692835898  0.43601670453203833  0.755234807936914  1.0000
  N   N8        1.0  0.6457723075574767  0.9360167035013504  0.7447651924435822  1.0000
  I   I1        1.0  0.7805479816043576  0.045638679212110796  0.0680606996166061  1.0000
  I   I2        1.0  0.21945201869994038  0.5456386794109618  0.4319393006745952  1.0000
  I   I3        1.0  0.2194520183977928  0.9543613211855911  0.9319393011153861  1.0000
  I   I4        1.0  0.7805479819955818  0.45436132098674015  0.56806069926511  1.0000
  I   I5        1.0  0.8683818919665859  0.3310286270711651  0.9752609352921029  1.0000
  I   I6        1.0  0.1316181084267889  0.8310286272700161  0.5247390650883932  1.0000
  I   I7        1.0  0.13161810872893648  0.6689713733265369  0.024739064647602373  1.0000
  I   I8        1.0  0.8683818915753614  0.16897137312768587  0.4752609356435989  1.0000
