data_image0
_chemical_formula_structural       H82C40N4F12P2I4
_chemical_formula_sum              "H82 C40 N4 F12 P2 I4"
_cell_length_a       7.236934622926559
_cell_length_b       7.675245262790263
_cell_length_c       23.77906220391656
_cell_angle_alpha    97.15574184908797
_cell_angle_beta     94.46579305934387
_cell_angle_gamma    91.71064187410802

_space_group_name_H-M_alt    "P 1"
_space_group_IT_number       1

loop_
  _space_group_symop_operation_xyz
  'x, y, z'

loop_
  _atom_site_type_symbol
  _atom_site_label
  _atom_site_symmetry_multiplicity
  _atom_site_fract_x
  _atom_site_fract_y
  _atom_site_fract_z
  _atom_site_occupancy
  H   H1        1.0  0.7605183935228379  0.43229290864983655  0.05824476751123104  1.0000
  H   H2        1.0  0.2394816061909921  0.5677070912310873  0.9417552323198672  1.0000
  H   H3        1.0  0.9188690622608283  0.5701533864519653  0.10651833953185869  1.0000
  H   H4        1.0  0.08113093745300169  0.4298466134289586  0.8934816602992398  1.0000
  H   H5        1.0  0.7128943450191907  0.5759411760261741  0.1778316122998097  1.0000
  H   H6        1.0  0.2871056560773132  0.4240588238551804  0.8221683875348392  1.0000
  H   H7        1.0  0.5456350935244546  0.45764944149192205  0.12716700792404498  1.0000
  H   H8        1.0  0.4543649061893754  0.5423505583890018  0.8728329919070533  1.0000
  H   H9        1.0  0.9284347710509364  0.023839140475381836  0.09927712093173587  1.0000
  H   H10       1.0  0.07156523004556763  0.9761608594059726  0.9007228789029132  1.0000
  H   H11       1.0  0.7790464946356277  0.12083638889888368  0.049847967762421924  1.0000
  H   H12       1.0  0.22095350646087616  0.8791636109824709  0.9501520320722271  1.0000
  H   H13       1.0  0.5442417668170684  0.13970509830962327  0.11204208036398856  1.0000
  H   H14       1.0  0.45575823289676154  0.8602949015713006  0.8879579194671098  1.0000
  H   H15       1.0  0.6832978373556722  0.02270899522939959  0.15835729933957013  1.0000
  H   H16       1.0  0.31670216246086147  0.9772910048232127  0.8416427009167915  1.0000
  H   H17       1.0  0.12141786369719507  0.43731110279262614  0.17312995073682183  1.0000
  H   H18       1.0  0.8785821361193387  0.5626888972599864  0.8268700495195399  1.0000
  H   H19       1.0  0.13356023248057766  0.20357522499236144  0.16675229122574028  1.0000
  H   H20       1.0  0.8664397686159265  0.7964247748889931  0.8332477086089087  1.0000
  H   H21       1.0  0.9047391914384793  0.18485768706063202  0.22932927417425553  1.0000
  H   H22       1.0  0.09526080965802469  0.8151423128207226  0.7706707256603935  1.0000
  H   H23       1.0  0.9070095227857004  0.4199251034534215  0.24050354350649358  1.0000
  H   H24       1.0  0.09299047831080379  0.5800748964279331  0.7594964563281555  1.0000
  H   H25       1.0  0.5704226095160801  0.16350600994127687  0.23520783255448302  1.0000
  H   H26       1.0  0.42957739019774993  0.836493989939647  0.7647921672766153  1.0000
  H   H27       1.0  0.4240657580127193  0.27783793201486057  0.19091939979139202  1.0000
  H   H28       1.0  0.5759342431864884  0.7221620680381826  0.8090806004685204  1.0000
  H   H29       1.0  0.5354022876676154  0.5662859877735256  0.24959171347033396  1.0000
  H   H30       1.0  0.4645977121489184  0.433714012279087  0.7504082867860278  1.0000
  H   H31       1.0  0.6721919535802547  0.4473792471930184  0.2958364765623097  1.0000
  H   H32       1.0  0.3278080461335751  0.5526207526879056  0.7041635232687885  1.0000
  H   H33       1.0  0.2530043504950362  0.39368894979321145  0.2664143158371185  1.0000
  H   H34       1.0  0.7469956492187937  0.6063110500877125  0.7335856839939798  1.0000
  H   H35       1.0  0.3825889765477804  0.27727400581410655  0.31375989224770484  1.0000
  H   H36       1.0  0.6174110232687534  0.722725994238506  0.686240108008657  1.0000
  H   H37       1.0  0.3448817536859874  0.677429232644473  0.3300088120459844  1.0000
  H   H38       1.0  0.6551182475132202  0.32257076740857027  0.669991188213928  1.0000
  H   H39       1.0  0.45023046810467  0.5528276970112239  0.3805288647616443  1.0000
  H   H40       1.0  0.5497695330945377  0.4471723030418192  0.619471135498268  1.0000
  H   H41       1.0  0.04279346444281924  0.5160099151439089  0.33252151400178315  1.0000
  H   H42       1.0  0.9572065352710106  0.48399008473701505  0.6674784858293152  1.0000
  H   H43       1.0  0.14223048356075016  0.3875925264271354  0.38244984319427366  1.0000
  H   H44       1.0  0.8577695161530797  0.6124074734537885  0.6175501566368247  1.0000
  H   H45       1.0  0.11002035635289192  0.788057809674473  0.4014053448626534  1.0000
  H   H46       1.0  0.889979643360938  0.21194219020645086  0.598594654968445  1.0000
  H   H47       1.0  0.21071235360655544  0.6625001147042644  0.4519784028822675  1.0000
  H   H48       1.0  0.7892876474899485  0.3374998851770901  0.5480215969523815  1.0000
  H   H49       1.0  0.8063251690076018  0.6188907839196451  0.40105106273538804  1.0000
  H   H50       1.0  0.19367483070622812  0.3811092159612787  0.5989489370957103  1.0000
  H   H51       1.0  0.9071407132163485  0.49291627507401176  0.4514017479063741  1.0000
  H   H52       1.0  0.09285928660018516  0.5070837249786008  0.5485982523499876  1.0000
  H   H53       1.0  0.8699725194365866  0.893034205431873  0.4702209900789844  1.0000
  H   H54       1.0  0.13002748027724334  0.10696579444905087  0.5297790097521139  1.0000
  H   H55       1.0  0.972926292605289  0.7683827471356834  0.5205892845536487  1.0000
  H   H56       1.0  0.027073707108541078  0.23161725274524025  0.4794107152774496  1.0000
  H   H57       1.0  0.6704448701910123  0.5978210010094404  0.5210136065238481  1.0000
  H   H58       1.0  0.32955513100819545  0.40217899904360277  0.4789863937360643  1.0000
  H   H59       1.0  0.5674421168401313  0.7232516984360734  0.47084480901095527  1.0000
  H   H60       1.0  0.4325578829764023  0.27674830161653907  0.5291551912454064  1.0000
  H   H61       1.0  0.6337046009395202  0.9980549307915629  0.5394828150515381  1.0000
  H   H62       1.0  0.36629540030163726  0.0019450705643853125  0.4605171852069555  1.0000
  H   H63       1.0  0.7382925780035525  0.8745134890824665  0.5898473578152106  1.0000
  H   H64       1.0  0.2617074217102774  0.1254865107984573  0.41015264201588775  1.0000
  H   H65       1.0  0.33173173228138514  0.828275069683787  0.5412075922981014  1.0000
  H   H66       1.0  0.6682682689178226  0.17172493036925626  0.458792407961811  1.0000
  H   H67       1.0  0.43601054586674426  0.7049891653591849  0.5917195493606651  1.0000
  H   H68       1.0  0.5639894552297597  0.2950108345221698  0.408280450473984  1.0000
  H   H69       1.0  0.5043519158578087  0.9860644373154107  0.6594409435858745  1.0000
  H   H70       1.0  0.49564808385602127  0.013935562565513279  0.3405590562452239  1.0000
  H   H71       1.0  0.39668166241685593  0.10508247767684985  0.6084217747560573  1.0000
  H   H72       1.0  0.6033183387823519  0.8949175223761935  0.39157822550385507  1.0000
  H   H73       1.0  0.09750471680342651  0.9317722198812359  0.6114441408698165  1.0000
  H   H74       1.0  0.9024952829104034  0.0682277799996879  0.38855585896128186  1.0000
  H   H75       1.0  0.20380041205297017  0.815524689052  0.6633579864631911  1.0000
  H   H76       1.0  0.7961995876608599  0.18447531082892388  0.3366420133679072  1.0000
  H   H77       1.0  0.26240889932584616  0.10050573624260385  0.7299417587899236  1.0000
  H   H78       1.0  0.7375911018733615  0.8994942638104394  0.27005824146998875  1.0000
  H   H79       1.0  0.022392306104627707  0.06605569694926977  0.7077933457326873  1.0000
  H   H80       1.0  0.9776076936092022  0.9339443029316541  0.29220665409841107  1.0000
  H   H81       1.0  0.1597731421156091  0.2169187032561492  0.6768001305962994  1.0000
  H   H82       1.0  0.8402268589808949  0.7830812966252054  0.32319986923834965  1.0000
  C   C1        1.0  0.8314006341255068  0.449566559191887  0.10108697929199113  1.0000
  C   C2        1.0  0.16859936558832325  0.550433440689037  0.8989130205391073  1.0000
  C   C3        1.0  0.6883844819763618  0.4589705401147276  0.1464412394692317  1.0000
  C   C4        1.0  0.31161551773746826  0.5410294597661964  0.8535587603618667  1.0000
  C   C5        1.0  0.8377405850781441  0.13332567451996477  0.09409382885531445  1.0000
  C   C6        1.0  0.16225941612106362  0.8666743255330784  0.905906171404598  1.0000
  C   C7        1.0  0.6815510735562532  0.13587665451022501  0.13456005583584982  1.0000
  C   C8        1.0  0.3184489261575768  0.8641233453706989  0.8654399439952487  1.0000
  C   C9        1.0  0.04109092018237793  0.312830538348668  0.16479911016599563  1.0000
  C   C10       1.0  0.958909079531452  0.6871694615322559  0.8352008896651028  1.0000
  C   C11       1.0  0.8948706051802355  0.3040046167538433  0.20839171690055164  1.0000
  C   C12       1.0  0.1051293959162683  0.6959953831275114  0.7916082829340975  1.0000
  C   C13       1.0  0.5539640648392415  0.2893210246672717  0.21827490454993623  1.0000
  C   C14       1.0  0.4460359348745884  0.7106789752136522  0.7817250952811621  1.0000
  C   C15       1.0  0.5468902394789087  0.4393487716193151  0.2661244872583369  1.0000
  C   C16       1.0  0.4531097602349213  0.5606512282616088  0.7338755125727615  1.0000
  C   C17       1.0  0.3747456466688392  0.40536062243830123  0.29754555962995305  1.0000
  C   C18       1.0  0.6252543531476944  0.5946393776143113  0.7024544406264085  1.0000
  C   C19       1.0  0.3397035175376446  0.5485249657769243  0.34564809364430876  1.0000
  C   C20       1.0  0.6602964822788892  0.4514750342756881  0.6543519066120529  1.0000
  C   C21       1.0  0.15063427464270177  0.5187320905199382  0.36817198039515603  1.0000
  C   C22       1.0  0.8493657251738319  0.48126790953267434  0.6318280198612056  1.0000
  C   C23       1.0  0.10385908478502133  0.6574421125945145  0.41602682174457245  1.0000
  C   C24       1.0  0.8961409149288087  0.34255788728640946  0.5839731780865259  1.0000
  C   C25       1.0  0.9135021124492964  0.6239372296931475  0.43697736311539015  1.0000
  C   C26       1.0  0.0864978873672373  0.3760627703594651  0.5630226371409716  1.0000
  C   C27       1.0  0.8650140800617724  0.7622352729030414  0.48482811404716836  1.0000
  C   C28       1.0  0.13498591965205753  0.23776472697788256  0.51517188578393  1.0000
  C   C29       1.0  0.6756100482331995  0.7287382892059611  0.5064875588282657  1.0000
  C   C30       1.0  0.3243899528633046  0.2712617106753937  0.4935124410063833  1.0000
  C   C31       1.0  0.6291412311672081  0.8678076090371022  0.5544405899013365  1.0000
  C   C32       1.0  0.3708587699292959  0.1321923908442524  0.44555940993331256  1.0000
  C   C33       1.0  0.4405864295634065  0.8351650523025165  0.5766745175516143  1.0000
  C   C34       1.0  0.5594135701504235  0.1648349475784074  0.4233254822794841  1.0000
  C   C35       1.0  0.3943802230902593  0.9758634063302181  0.6241798474304043  1.0000
  C   C36       1.0  0.6056197766235707  0.024136593550705843  0.37582015240069405  1.0000
  C   C37       1.0  0.2063691832679359  0.9439983938767005  0.6469999976187751  1.0000
  C   C38       1.0  0.7936308165485977  0.056001606175911836  0.3530000026375865  1.0000
  C   C39       1.0  0.15964743828563516  0.08888712217993386  0.6930303851970854  1.0000
  C   C40       1.0  0.8403525614281948  0.91111287770099  0.30696961463401296  1.0000
  N   N1        1.0  0.9505703248069803  0.29886136498920757  0.1066415149962289  1.0000
  N   N2        1.0  0.04942967628952362  0.7011386348921469  0.8933584848384202  1.0000
  N   N3        1.0  0.704461911717301  0.29970801510248946  0.17789381786773228  1.0000
  N   N4        1.0  0.2955380879965289  0.7002919847784345  0.8221061819633662  1.0000
  F   F1        1.0  0.2784699163323435  0.9652846635984054  0.14177596727277295  1.0000
  F   F2        1.0  0.7215300833814864  0.03471533628251866  0.8582240325583255  1.0000
  F   F3        1.0  0.45973158543237547  0.8307654634421829  0.2074885005017492  1.0000
  F   F4        1.0  0.5402684143841583  0.1692345366104295  0.7925114997546124  1.0000
  F   F5        1.0  0.22176466856471966  0.006783136705029269  0.2369879692860158  1.0000
  F   F6        1.0  0.7782353311491103  0.9932168631758946  0.7630120305450825  1.0000
  F   F7        1.0  0.19259577314539736  0.7040113116565123  0.23612598593360304  1.0000
  F   F8        1.0  0.8074042266711363  0.29598868839610015  0.7638740143227586  1.0000
  F   F9        1.0  0.012782006879499796  0.8400275417369932  0.17096646360403916  1.0000
  F   F10       1.0  0.9872179928343301  0.15997245814393063  0.8290335362270591  1.0000
  F   F11       1.0  0.25264160239993866  0.6641646097821757  0.14130899565277144  1.0000
  F   F12       1.0  0.7473583986965653  0.33583539009917884  0.8586910041818776  1.0000
  P   P1        1.0  0.2364506256088534  0.8347965828695485  0.18917148579741877  1.0000
  P   P2        1.0  0.7635493742076802  0.1652034171830641  0.8108285144589429  1.0000
  I   I1        1.0  0.20015858847593265  0.2781547387320137  0.03788540662335379  1.0000
  I   I2        1.0  0.799841411340601  0.7218452613205988  0.9621145936330078  1.0000
  I   I3        1.0  0.48386671485038835  0.24295200985025867  0.9638156724561024  1.0000
  I   I4        1.0  0.5161332863488195  0.7570479902027846  0.036184327803809896  1.0000
