data_image0
_chemical_formula_structural       H66C32N4F12P2I4
_chemical_formula_sum              "H66 C32 N4 F12 P2 I4"
_cell_length_a       7.209171625448639
_cell_length_b       7.686826229317011
_cell_length_c       20.680425683781714
_cell_angle_alpha    99.55862880351462
_cell_angle_beta     94.34064796171042
_cell_angle_gamma    91.70249102157157

_space_group_name_H-M_alt    "P 1"
_space_group_IT_number       1

loop_
  _space_group_symop_operation_xyz
  'x, y, z'

loop_
  _atom_site_type_symbol
  _atom_site_label
  _atom_site_symmetry_multiplicity
  _atom_site_fract_x
  _atom_site_fract_y
  _atom_site_fract_z
  _atom_site_occupancy
  H   H1        1.0  0.3633685466074364  0.9707976551845686  0.3771608046777736  1.0000
  H   H2        1.0  0.63663145355241  0.029202345219238205  0.6228391952717144  1.0000
  H   H3        1.0  0.2308008717331789  0.8779648472765376  0.43347227862145254  1.0000
  H   H4        1.0  0.769199128383956  0.12203515182529683  0.5665277213269888  1.0000
  H   H5        1.0  0.9766425872180963  0.8389531150647072  0.3539067604454775  1.0000
  H   H6        1.0  0.023357412899038765  0.16104688403712725  0.6460932395029639  1.0000
  H   H7        1.0  0.11637955146134984  0.9117011885125874  0.29515541369740805  1.0000
  H   H8        1.0  0.8836204486557852  0.08829881058924695  0.7048445862510333  1.0000
  H   H9        1.0  0.5459312382111796  0.5501508441782776  0.3076749887971325  1.0000
  H   H10       1.0  0.4540687619486667  0.44984915622552923  0.6923250111523555  1.0000
  H   H11       1.0  0.5301435773764946  0.7781439021111078  0.3004805660750215  1.0000
  H   H12       1.0  0.4698564227833516  0.22185609829269887  0.6995194338744665  1.0000
  H   H13       1.0  0.2782215534220003  0.6989097408103929  0.22235876166954024  1.0000
  H   H14       1.0  0.7217784453518595  0.30109025959659  0.7776412382844448  1.0000
  H   H15       1.0  0.28200323655039833  0.4740811625438548  0.23519041307362615  1.0000
  H   H16       1.0  0.717996763609448  0.525918837859952  0.7648095868758618  1.0000
  H   H17       1.0  0.2529277995274481  0.5743229061062448  0.44284797862017994  1.0000
  H   H18       1.0  0.7470721992037005  0.42567709299876566  0.5571520213327587  1.0000
  H   H19       1.0  0.3766457744872219  0.4323390152577083  0.3854568553278656  1.0000
  H   H20       1.0  0.6233542256726243  0.5676609851460984  0.6145431446216223  1.0000
  H   H21       1.0  0.9833079542831169  0.5362364422438906  0.3706597255194893  1.0000
  H   H22       1.0  0.0166920444907428  0.4637635581630924  0.6293402744344958  1.0000
  H   H23       1.0  0.09839961266691215  0.37697551165790977  0.316896852609042  1.0000
  H   H24       1.0  0.9016003874502228  0.6230244874439245  0.6831031473393995  1.0000
  H   H25       1.0  0.9449061761563331  0.44780805319677736  0.22800075300271935  1.0000
  H   H26       1.0  0.055093823960802084  0.552191945905057  0.7719992469457221  1.0000
  H   H27       1.0  0.820854666423075  0.6014006509282411  0.27948980377714666  1.0000
  H   H28       1.0  0.1791453337367712  0.3985993494755656  0.7205101961723412  1.0000
  H   H29       1.0  0.015764638722455215  0.6784403278414227  0.15899410009156095  1.0000
  H   H30       1.0  0.984235361437391  0.32155967256238394  0.841005899857927  1.0000
  H   H31       1.0  0.9018320788927676  0.8378862217064139  0.21268271568612787  1.0000
  H   H32       1.0  0.09816792126707867  0.162113778697393  0.7873172842633601  1.0000
  H   H33       1.0  0.6097691494550898  0.6495909984503483  0.191525921929611  1.0000
  H   H34       1.0  0.39023085066204527  0.35040900065148606  0.8084740780188303  1.0000
  H   H35       1.0  0.7164006578693143  0.49132482618200324  0.1368287239008419  1.0000
  H   H36       1.0  0.2835993422905321  0.5086751742218035  0.8631712760486461  1.0000
  H   H37       1.0  0.6700176091379983  0.876889360524966  0.11920101965397802  1.0000
  H   H38       1.0  0.3299823910218479  0.12311063987884077  0.8807989802955098  1.0000
  H   H39       1.0  0.752416137802587  0.7083333536428019  0.06090340820593161  1.0000
  H   H40       1.0  0.2475838623145481  0.29166664545903237  0.9390965917425098  1.0000
  H   H41       1.0  0.44299126547195655  0.5388604231760081  0.05601961960973639  1.0000
  H   H42       1.0  0.5570087346878897  0.4611395772277986  0.9439803803397514  1.0000
  H   H43       1.0  0.3659937368650037  0.7103352786642959  0.11391226531976316  1.0000
  H   H44       1.0  0.6340062632521313  0.28966472043753844  0.8860877346286782  1.0000
  H   H45       1.0  0.4773874994346117  0.7547163463347747  0.9771166349270058  1.0000
  H   H46       1.0  0.5226125007252346  0.245283654069032  0.02288336502248211  1.0000
  H   H47       1.0  0.39872419319863095  0.9228757681464925  0.035988689443056526  1.0000
  H   H48       1.0  0.6012758069612154  0.07712423225731413  0.9640113105064313  1.0000
  H   H49       1.0  0.17405827072624694  0.5815929136554264  0.9746027566927307  1.0000
  H   H50       1.0  0.8259417280049016  0.4184070854495841  0.02539724326020786  1.0000
  H   H51       1.0  0.09560738120694218  0.7489993927180822  0.03358827817295209  1.0000
  H   H52       1.0  0.9043926189529041  0.2510006076857246  0.9664117217765358  1.0000
  H   H53       1.0  0.11818187248513362  0.9656179496145505  0.9563446331488876  1.0000
  H   H54       1.0  0.8818181276747127  0.03438205078925631  0.04365536680060033  1.0000
  H   H55       1.0  0.2016395883050137  0.8028081127807216  0.8968663493253147  1.0000
  H   H56       1.0  0.7983604118121214  0.19719188632111276  0.10313365062312665  1.0000
  H   H57       1.0  0.9025750042781635  0.6223309218787163  0.892254649792331  1.0000
  H   H58       1.0  0.09742499462216495  0.37766907874845695  0.10774535065363787  1.0000
  H   H59       1.0  0.8202922555678521  0.7826439014855633  0.9527161143121201  1.0000
  H   H60       1.0  0.1797077447184627  0.21735609913843373  0.04728388612935167  1.0000
  H   H61       1.0  0.8380043909675461  0.009882822726052965  0.8778991519027083  1.0000
  H   H62       1.0  0.16199560919230024  0.9901171776777539  0.1221008480467798  1.0000
  H   H63       1.0  0.6906389939930541  0.8266041016322844  0.8406948208729865  1.0000
  H   H64       1.0  0.3093610061667922  0.17339589877152248  0.15930517907650152  1.0000
  H   H65       1.0  0.9203047197252078  0.8500732441806913  0.8162730993377393  1.0000
  H   H66       1.0  0.07969528039192722  0.14992675492114313  0.18372690061070218  1.0000
  C   C1        1.0  0.2781149865595283  0.8557365292547641  0.38374170444109945  1.0000
  C   C2        1.0  0.7218850135576065  0.1442634698470704  0.616258295507342  1.0000
  C   C3        1.0  0.10951212648730466  0.8234809744483057  0.3314824067497983  1.0000
  C   C4        1.0  0.8904878736298302  0.17651902465352867  0.6685175931986431  1.0000
  C   C5        1.0  0.45413647927350476  0.6610238338262036  0.30993123386837207  1.0000
  C   C6        1.0  0.5458635210128101  0.33897616679779347  0.6900687665730997  1.0000
  C   C7        1.0  0.28386279581215124  0.6123681099235254  0.2594743828050272  1.0000
  C   C8        1.0  0.7161372043049837  0.38763188917830893  0.7405256171434142  1.0000
  C   C9        1.0  0.2879616365297747  0.5460886169190368  0.3916084738056575  1.0000
  C   C10       1.0  0.7120383636300716  0.45391138348477006  0.6083915261438304  1.0000
  C   C11       1.0  0.10939422325376179  0.5116511902738067  0.34475324997548523  1.0000
  C   C12       1.0  0.8906057769060844  0.4883488101300001  0.6552467499740028  1.0000
  C   C13       1.0  0.9370490525326569  0.5887170016543197  0.24805457218686713  1.0000
  C   C14       1.0  0.06295094771094668  0.4112829976677049  0.7519454282535581  1.0000
  C   C15       1.0  0.9051622273478735  0.6962191157776931  0.1931171111020458  1.0000
  C   C16       1.0  0.0948377728119727  0.3037808846261137  0.8068828888474422  1.0000
  C   C17       1.0  0.7165086848164647  0.6339426298281154  0.15595132486992808  1.0000
  C   C18       1.0  0.2834913153433817  0.3660573705756913  0.8440486750795599  1.0000
  C   C19       1.0  0.6577277910158826  0.7341888169003135  0.10053971241286509  1.0000
  C   C20       1.0  0.3422722091439637  0.26581118350349325  0.8994602875366228  1.0000
  C   C21       1.0  0.4572770401853429  0.6827632383555785  0.07319434628163402  1.0000
  C   C22       1.0  0.5427229599745035  0.31723676204822826  0.926805653667854  1.0000
  C   C23       1.0  0.38665913747704017  0.7793544634973836  0.01806722313999731  1.0000
  C   C24       1.0  0.6133408612968196  0.22064553690959948  0.9819327768139878  1.0000
  C   C25       1.0  0.18549071807919884  0.7253687245011022  0.9923224823651864  1.0000
  C   C26       1.0  0.8145092820379363  0.2746312746007321  0.007677517583255069  1.0000
  C   C27       1.0  0.1106816565508648  0.8223008794786155  0.9378341210965282  1.0000
  C   C28       1.0  0.8893183436089815  0.17769912092519125  0.062165878852959766  1.0000
  C   C29       1.0  0.9105488135156474  0.765457259652394  0.9115590282827438  1.0000
  C   C30       1.0  0.08945118660148742  0.23454273944944046  0.08844097166569763  1.0000
  C   C31       1.0  0.8350506689158673  0.8674018291492925  0.8585812570660429  1.0000
  C   C32       1.0  0.16494933132773615  0.13259817017273204  0.14141874337438223  1.0000
  N   N1        1.0  0.39451818562604296  0.7000601117522842  0.37722142690174093  1.0000
  N   N2        1.0  0.6054818145338033  0.2999398886515227  0.6227785730477471  1.0000
  N   N3        1.0  0.10938470928710997  0.6358501048494348  0.29487532953833356  1.0000
  N   N4        1.0  0.8906152908727363  0.36414989555437205  0.7051246704111545  1.0000
  F   F1        1.0  0.8422479588234212  0.13914307183597532  0.2577878365888742  1.0000
  F   F2        1.0  0.15775204133642512  0.8608569285678312  0.7422121633606137  1.0000
  F   F3        1.0  0.5566085866485685  0.9882035966155481  0.2257013067848158  1.0000
  F   F4        1.0  0.44339141351127764  0.011796403788258638  0.7742986931646721  1.0000
  F   F5        1.0  0.5875013737259237  0.289639793504306  0.2251763493337438  1.0000
  F   F6        1.0  0.4124986265603911  0.7103602071196908  0.774823651107728  1.0000
  F   F7        1.0  0.41568430299657466  0.1837154276707307  0.3021917124921471  1.0000
  F   F8        1.0  0.5843156971632716  0.8162845727330761  0.6978082874573408  1.0000
  F   F9        1.0  0.6996593031774311  0.33374494629495455  0.33488217507377105  1.0000
  F   F10       1.0  0.3003406971088838  0.6662550543290425  0.6651178253677008  1.0000
  F   F11       1.0  0.6727732486554812  0.033708183174111256  0.3348926448786509  1.0000
  F   F12       1.0  0.3272267514616538  0.9662918159277231  0.6651073550697906  1.0000
  P   P1        1.0  0.6291322294080125  0.16088875891556018  0.2799555514626817  1.0000
  P   P2        1.0  0.3708677707091226  0.8391112401862741  0.7200444484857597  1.0000
  I   I1        1.0  0.6818984786936637  0.7423852165722173  0.4569307224031451  1.0000
  I   I2        1.0  0.31810152146618254  0.2576147838315895  0.5430692775463429  1.0000
  I   I3        1.0  0.006031108999714253  0.7757816860682666  0.542685718261606  1.0000
  I   I4        1.0  0.9939688911601321  0.22421831433554013  0.4573142816878819  1.0000
