data_image0
_chemical_formula_structural       H74C36N4F12P2I4
_chemical_formula_sum              "H74 C36 N4 F12 P2 I4"
_cell_length_a       7.202794999653978
_cell_length_b       7.681670864150465
_cell_length_c       22.27661784764655
_cell_angle_alpha    80.6929202506243
_cell_angle_beta     90.08932471659033
_cell_angle_gamma    88.3739411395873

_space_group_name_H-M_alt    "P 1"
_space_group_IT_number       1

loop_
  _space_group_symop_operation_xyz
  'x, y, z'

loop_
  _atom_site_type_symbol
  _atom_site_label
  _atom_site_symmetry_multiplicity
  _atom_site_fract_x
  _atom_site_fract_y
  _atom_site_fract_z
  _atom_site_occupancy
  H   H1        1.0  0.39281359125173193  0.9187356107078994  0.6145980119421164  1.0000
  H   H2        1.0  0.6071864096335622  0.08126438990259267  0.3854019880112164  1.0000
  H   H3        1.0  0.24624176154690436  0.06072481484707696  0.5625180252942121  1.0000
  H   H4        1.0  0.7537582379500758  0.9392751857632647  0.43748197465533434  1.0000
  H   H5        1.0  0.011968829503989377  0.030748500506805488  0.6360698009824711  1.0000
  H   H6        1.0  0.9880311700344668  0.9692514988018367  0.3639301989657584  1.0000
  H   H7        1.0  0.16595780659688805  0.905444538620649  0.6902989396894516  1.0000
  H   H8        1.0  0.8340421943298821  0.0945554606881441  0.30970106026256433  1.0000
  H   H9        1.0  0.26531461934567685  0.3729794871633643  0.5535295613049657  1.0000
  H   H10       1.0  0.7346853815396173  0.6270205134471278  0.44647043864836716  1.0000
  H   H11       1.0  0.40416463944446634  0.4656457028562875  0.6058567823014676  1.0000
  H   H12       1.0  0.5958353600525138  0.5343542977540543  0.39414321764807897  1.0000
  H   H13       1.0  0.14523845579984937  0.4601301535005137  0.6700453874203153  1.0000
  H   H14       1.0  0.8547615451269208  0.5398698458082792  0.32995461253170055  1.0000
  H   H15       1.0  0.01497914834860125  0.3492539411973462  0.620645644953929  1.0000
  H   H16       1.0  0.9850208525753901  0.6507460578940909  0.37935435545296753  1.0000
  H   H17       1.0  0.5934341253431721  0.27955203924125244  0.678297465432838  1.0000
  H   H18       1.0  0.4065658755835981  0.7204479600675405  0.3217025345191779  1.0000
  H   H19       1.0  0.5807643268618622  0.04524363225986928  0.685129941588815  1.0000
  H   H20       1.0  0.419235672676594  0.9547563670487731  0.31487005835941456  1.0000
  H   H21       1.0  0.3480212802344558  0.05328611154021335  0.757268190163724  1.0000
  H   H22       1.0  0.6519787192625244  0.9467138890701282  0.24273180978582254  1.0000
  H   H23       1.0  0.3487680839835044  0.2892981405901967  0.745848083590113  1.0000
  H   H24       1.0  0.6512319169017898  0.7107018600202956  0.25415191636322  1.0000
  H   H25       1.0  0.8755331326281418  0.20198766240662747  0.7051334150273375  1.0000
  H   H26       1.0  0.12446686825715246  0.798012338203865  0.29486658492599527  1.0000
  H   H27       1.0  0.013240324979504505  0.3103688891633372  0.7524415964616644  1.0000
  H   H28       1.0  0.9867596745174756  0.6896311114470043  0.24755840348788224  1.0000
  H   H29       1.0  0.1007579668026306  0.018994239142311582  0.8165437432859498  1.0000
  H   H30       1.0  0.8992420326943495  0.9810057614680303  0.18345625666359666  1.0000
  H   H31       1.0  0.9731541308735027  0.9065165695962271  0.7670705980608237  1.0000
  H   H32       1.0  0.026845868623477483  0.09348343101411441  0.2329294018887228  1.0000
  H   H33       1.0  0.8060431996440294  0.1871266234609394  0.8365374610662888  1.0000
  H   H34       1.0  0.1939567998529507  0.8128733771494021  0.16346253888325787  1.0000
  H   H35       1.0  0.6864999451792722  0.0764612160299049  0.7859810245782315  1.0000
  H   H36       1.0  0.31350005574749806  0.9235387832788882  0.2140189753737844  1.0000
  H   H37       1.0  0.8587948218459084  0.9035152466508459  0.9074119861606985  1.0000
  H   H38       1.0  0.1412051776510718  0.09648475395949577  0.09258801378884801  1.0000
  H   H39       1.0  0.7639126612283408  0.7856498267376872  0.8533109557254162  1.0000
  H   H40       1.0  0.23608733965695347  0.21435017387280497  0.1466890442279167  1.0000
  H   H41       1.0  0.46031082836525017  0.9464019188354682  0.8570335200403116  1.0000
  H   H42       1.0  0.539689172520044  0.05359808177502411  0.14296647991302122  1.0000
  H   H43       1.0  0.5494140480815694  0.06823785832984751  0.9105242569830307  1.0000
  H   H44       1.0  0.4505859514154108  0.9317621422804941  0.08947574296651592  1.0000
  H   H45       1.0  0.6031693377038156  0.7841911889460412  0.9840652443535661  1.0000
  H   H46       1.0  0.39683066183464055  0.21580881036260108  0.015934755594663313  1.0000
  H   H47       1.0  0.5112044873078846  0.6661459920843726  0.9299098025365417  1.0000
  H   H48       1.0  0.4887955122305715  0.33385400722426983  0.07009019741168777  1.0000
  H   H49       1.0  0.207569009655722  0.835482740372162  0.9312887988972868  1.0000
  H   H50       1.0  0.7924309898827343  0.16451725893648056  0.06871120105094272  1.0000
  H   H51       1.0  0.29940955901311295  0.9549478368359487  0.9849529477744531  1.0000
  H   H52       1.0  0.7005904419136573  0.04505216247284415  0.015047052177562727  1.0000
  H   H53       1.0  0.2559956386691003  0.5532165997334426  0.00465245462672769  1.0000
  H   H54       1.0  0.7440043608278797  0.446783400876899  0.9953475453228189  1.0000
  H   H55       1.0  0.3490821391010248  0.670970487961176  0.05852825726035622  1.0000
  H   H56       1.0  0.6509178603959553  0.32902951264916563  0.9414717426891903  1.0000
  H   H57       1.0  0.9530829910100579  0.7242054608412118  0.006275898355470305  1.0000
  H   H58       1.0  0.046917008486922276  0.2757945397691299  0.9937241015940761  1.0000
  H   H59       1.0  0.04602984828341202  0.8415724220927905  0.06031008675273085  1.0000
  H   H60       1.0  0.9539701512135682  0.15842757851755107  0.9396899131968157  1.0000
  H   H61       1.0  0.09626588452459053  0.5528951714560243  0.13273487308885698  1.0000
  H   H62       1.0  0.9037341164021796  0.44710482785276884  0.8672651268631588  1.0000
  H   H63       1.0  0.9991387472129958  0.440400384607133  0.07817840687072665  1.0000
  H   H64       1.0  0.0008612522839843923  0.5595996160032086  0.9218215930788198  1.0000
  H   H65       1.0  0.7944906677095576  0.7250953047606602  0.1369747934444919  1.0000
  H   H66       1.0  0.20550933182611966  0.27490469433062636  0.8630252069586183  1.0000
  H   H67       1.0  0.6993243489093195  0.6144976571762167  0.08165931013222909  1.0000
  H   H68       1.0  0.30067565201745067  0.3855023421325761  0.9183406898197868  1.0000
  H   H69       1.0  0.7469564348211682  0.3223283461660692  0.15200898064679907  1.0000
  H   H70       1.0  0.2530435647172879  0.677671653142573  0.8479910193014305  1.0000
  H   H71       1.0  0.5990653518722348  0.46904843869116875  0.18455354140419675  1.0000
  H   H72       1.0  0.4009346476662213  0.5309515606174737  0.8154464585440329  1.0000
  H   H73       1.0  0.8343512224833348  0.43460815930463687  0.2087393184262414  1.0000
  H   H74       1.0  0.16564877701086647  0.5653918410883491  0.7912606819781858  1.0000
  C   C1        1.0  0.30620412712435247  0.03966380028576337  0.608433697666006  1.0000
  C   C2        1.0  0.6937958738024176  0.9603361990230298  0.3915663022860098  1.0000
  C   C3        1.0  0.15059132605816714  0.026040278484560794  0.656784951671311  1.0000
  C   C4        1.0  0.849408674868603  0.973959720824232  0.3432150482807049  1.0000
  C   C5        1.0  0.31413665463989  0.3565297794228378  0.6007691101958516  1.0000
  C   C6        1.0  0.6858633448570902  0.6434702211875039  0.399230889753695  1.0000
  C   C7        1.0  0.14798072747835347  0.3499627298013821  0.6444105787481392  1.0000
  C   C8        1.0  0.852019273404162  0.6500372705917545  0.3555894216600743  1.0000
  C   C9        1.0  0.5014737526203134  0.17013896177749133  0.6763318906399676  1.0000
  C   C10       1.0  0.49852624826498076  0.8298610388330009  0.32366810931336537  1.0000
  C   C11       1.0  0.34400752276269214  0.1730564435670764  0.723129401383382  1.0000
  C   C12       1.0  0.655992476775764  0.8269435557415661  0.2768705985648475  1.0000
  C   C13       1.0  0.9999343552916541  0.18693870935305495  0.7340764769904868  1.0000
  C   C14       1.0  6.564559364007334e-05  0.8130612912574373  0.265923522962846  1.0000
  C   C15       1.0  0.9814857325600924  0.03108100198553735  0.7850308868402563  1.0000
  C   C16       1.0  0.018514266978363628  0.968918997323105  0.21496911310797323  1.0000
  C   C17       1.0  0.8016743970666473  0.06115991826542931  0.8190561185647233  1.0000
  C   C18       1.0  0.19832560243033268  0.9388400823449123  0.18094388138482329  1.0000
  C   C19       1.0  0.7555777973477804  0.9122797979659152  0.8703269691666854  1.0000
  C   C20       1.0  0.24442220357898972  0.08772020134287772  0.12967303078533052  1.0000
  C   C21       1.0  0.5608359855117278  0.9392017880421345  0.894914084595953  1.0000
  C   C22       1.0  0.43916401402672833  0.060798211266507925  0.1050859153522765  1.0000
  C   C23       1.0  0.5030389950417314  0.7945294508053962  0.9459972852384363  1.0000
  C   C24       1.0  0.4969610044967246  0.20547054850324628  0.054002714709793134  1.0000
  C   C25       1.0  0.30773952154097856  0.8257471831301132  0.9693651976767003  1.0000
  C   C26       1.0  0.6922604779560017  0.1742528174802285  0.030634802272846366  1.0000
  C   C27       1.0  0.24839741972121002  0.6818217552378402  0.020594147548954556  1.0000
  C   C28       1.0  0.7516025798172461  0.31817824407080236  0.9794058523992749  1.0000
  C   C29       1.0  0.05348032061977833  0.7129851888578376  0.04428928590666646  1.0000
  C   C30       1.0  0.9465196803069919  0.2870148104509554  0.9557107140453494  1.0000
  C   C31       1.0  0.9941100388114796  0.5676715499255379  0.09512729300379254  1.0000
  C   C32       1.0  0.005889962115290528  0.43232844938325493  0.9048727069482233  1.0000
  C   C33       1.0  0.7999452704437647  0.5982643038895245  0.11964991438104307  1.0000
  C   C34       1.0  0.2000547290532154  0.4017356967208173  0.8803500855685035  1.0000
  C   C35       1.0  0.741151673260675  0.44899404493537176  0.16905298663531892  1.0000
  C   C36       1.0  0.2588483276246192  0.5510059556751205  0.8309470133180138  1.0000
  N   N1        1.0  0.42444815650971446  0.18998328296910993  0.6142026876406197  1.0000
  N   N2        1.0  0.5755518444170558  0.8100167163396831  0.38579731231139625  1.0000
  N   N3        1.0  0.1601994053741617  0.18128179746477696  0.6905873255867905  1.0000
  N   N4        1.0  0.8398005941642944  0.8187182018438655  0.30941267436143904  1.0000
  F   F1        1.0  0.7148467885181595  0.8204182341787933  0.6521509998413763  1.0000
  F   F2        1.0  0.28515321240861063  0.17958176512999954  0.3478490001106397  1.0000
  F   F3        1.0  0.7418449342701002  0.5198315311242925  0.6525164459382444  1.0000
  F   F4        1.0  0.2581550652683558  0.48016846818435005  0.34748355400998515  1.0000
  F   F5        1.0  0.4665819050958501  0.640440642699525  0.6834054217904942  1.0000
  F   F6        1.0  0.5334180943983512  0.35955935769346087  0.3165945786139329  1.0000
  F   F7        1.0  0.6596377857630085  0.4671942930461012  0.7542604870603692  1.0000
  F   F8        1.0  0.3403622137339716  0.5328057075642405  0.24573951288917728  1.0000
  F   F9        1.0  0.6292422473394252  0.7696262964356833  0.753453979070399  1.0000
  F   F10       1.0  0.3707577535458689  0.23037370417480893  0.24654602088293381  1.0000
  F   F11       1.0  0.9058793040843667  0.6473868228646181  0.7231490453447948  1.0000
  F   F12       1.0  0.09412069545408953  0.3526131764440243  0.2768509546034348  1.0000
  P   P1        1.0  0.6864482973019356  0.6444730670645838  0.703267942873245  1.0000
  P   P2        1.0  0.31355170219504447  0.35552693354575776  0.2967320570763015  1.0000
  I   I1        1.0  0.6921884921065152  0.21963659206755043  0.5403327504043471  1.0000
  I   I2        1.0  0.307811507390465  0.7803634085427912  0.4596672495451994  1.0000
  I   I3        1.0  0.9959470185479187  0.2617041762349267  0.46118886315090135  1.0000
  I   I4        1.0  0.004052980990537444  0.7382958230737158  0.5388111367973282  1.0000
