data_image0
_chemical_formula_structural       H14C28N4S12I2
_chemical_formula_sum              "H14 C28 N4 S12 I2"
_cell_length_a       8.10732420260653
_cell_length_b       8.32192775265516
_cell_length_c       12.536537788407498
_cell_angle_alpha    81.27791361938958
_cell_angle_beta     83.57943196269375
_cell_angle_gamma    80.77465228401567

_space_group_name_H-M_alt    "P 1"
_space_group_IT_number       1

loop_
  _space_group_symop_operation_xyz
  'x, y, z'

loop_
  _atom_site_type_symbol
  _atom_site_label
  _atom_site_symmetry_multiplicity
  _atom_site_fract_x
  _atom_site_fract_y
  _atom_site_fract_z
  _atom_site_occupancy
  H   H1        1.0  0.47567205188896494  0.9895144642540206  0.29537231294554556  1.0000
  H   H2        1.0  0.5243279479826768  0.010485536321892613  0.7046276870613901  1.0000
  H   H3        1.0  0.6820744996107658  0.7798964206970408  0.5843853090984507  1.0000
  H   H4        1.0  0.3179255002608758  0.22010357987887247  0.41561469090848496  1.0000
  H   H5        1.0  0.8962789885292682  0.7432876824483023  0.5339688522388315  1.0000
  H   H6        1.0  0.10372101134237335  0.25671231812761086  0.4660311477681041  1.0000
  H   H7        1.0  0.8811932545539617  0.43323930565651103  0.5704647199476902  1.0000
  H   H8        1.0  0.11880674531767979  0.5667606949194023  0.42953528005924546  1.0000
  H   H9        1.0  0.7426390468864319  0.5428729272638353  0.47391677245430797  1.0000
  H   H10       1.0  0.2573609529852096  0.45712707331207797  0.5260832275526276  1.0000
  H   H11       1.0  0.8294479373244722  0.9122006521781993  0.8729134642636853  1.0000
  H   H12       1.0  0.17055206275018478  0.0877993471800146  0.1270865357447687  1.0000
  H   H13       1.0  0.8112977576238795  0.7903054155548973  0.06429618965353691  1.0000
  H   H14       1.0  0.188702242247762  0.209694585021016  0.9357038103533988  1.0000
  C   C1        1.0  0.6495955052494046  0.16819858665326112  0.27748101876625786  1.0000
  C   C2        1.0  0.3504044948252525  0.8318014127049526  0.7225189812421962  1.0000
  C   C3        1.0  0.5402115423256983  0.08285765555934399  0.24462313003761801  1.0000
  C   C4        1.0  0.45978845754594316  0.9171423450165692  0.7553768699693177  1.0000
  C   C5        1.0  0.632687407740851  0.2732190692166059  0.07527137208863592  1.0000
  C   C6        1.0  0.3673125923338061  0.7267809301416077  0.924728627919818  1.0000
  C   C7        1.0  0.6558558176370904  0.3512156270618637  0.9707236213668277  1.0000
  C   C8        1.0  0.34414418223455107  0.6487843735140495  0.029276378640108076  1.0000
  C   C9        1.0  0.7612689981317653  0.5272741150208787  0.7965758585329554  1.0000
  C   C10       1.0  0.23873100194289174  0.47272588433733487  0.20342414147549864  1.0000
  C   C11       1.0  0.6481331584438784  0.4417294322503024  0.7646723167941856  1.0000
  C   C12       1.0  0.3518668414277631  0.5582705683256108  0.23532768321275016  1.0000
  C   C13       1.0  0.7971594690112503  0.6906384789744832  0.5888981113853848  1.0000
  C   C14       1.0  0.2028405310634066  0.30936152038373066  0.4111018886230693  1.0000
  C   C15       1.0  0.7704979826783984  0.5271236886971091  0.559145354433724  1.0000
  C   C16       1.0  0.22950201739625864  0.47287631066110464  0.44085464557473  1.0000
  C   C17       1.0  0.913081755501294  0.1066073523177129  0.7051851848500692  1.0000
  C   C18       1.0  0.08691824437034751  0.8933926482582003  0.29481481515686647  1.0000
  C   C19       1.0  0.017431534580064502  0.1432106561044203  0.7766866318065455  1.0000
  C   C20       1.0  0.9825684654945923  0.8567893432537933  0.22331336820190864  1.0000
  C   C21       1.0  0.13273074433036341  0.25043837017096177  0.7351184015657201  1.0000
  C   C22       1.0  0.8672692557442936  0.749561629187252  0.264881598442734  1.0000
  C   C23       1.0  0.008933362839951949  0.07140306533834853  0.8893278103376213  1.0000
  C   C24       1.0  0.9910666372347049  0.9285969340198652  0.11067218967083288  1.0000
  C   C25       1.0  0.9030760130628802  0.951863769289843  0.9290157632874172  1.0000
  C   C26       1.0  0.09692398804068542  0.04813623128745126  0.07098423672674037  1.0000
  C   C27       1.0  0.8939301786841958  0.8824366985178045  0.03638292837574799  1.0000
  C   C28       1.0  0.10606982118744568  0.11756330205810879  0.9636170716311876  1.0000
  N   N1        1.0  0.8226437281240473  0.07506984140894549  0.6466512767564888  1.0000
  N   N2        1.0  0.17735627318253377  0.9249301579506494  0.3533487232591871  1.0000
  N   N3        1.0  0.23213516300109913  0.33917401066487113  0.70307896551151  1.0000
  N   N4        1.0  0.7678648370735578  0.6608259886933425  0.29692103449694424  1.0000
  S   S1        1.0  0.7343247308579582  0.31318204140933614  0.1815409572008261  1.0000
  S   S2        1.0  0.26567526901368316  0.6868179591665771  0.8184590428061096  1.0000
  S   S3        1.0  0.4987311680369002  0.12645516419957795  0.1102822939669285  1.0000
  S   S4        1.0  0.5012688318347414  0.8735448363763352  0.8897177060400071  1.0000
  S   S5        1.0  0.7949792539221584  0.4924319465225051  0.9337092231150161  1.0000
  S   S6        1.0  0.20502074594948316  0.507568054053408  0.06629077689191955  1.0000
  S   S7        1.0  0.5525363817334071  0.31027309657645524  0.8660413201970631  1.0000
  S   S8        1.0  0.4474636183412499  0.6897269027817584  0.1339586798113908  1.0000
  S   S9        1.0  0.8724705732939754  0.6740121489431211  0.7214581466737855  1.0000
  S   S10       1.0  0.1275294265776661  0.32598785163279226  0.2785418533331502  1.0000
  S   S11       1.0  0.5894874688349107  0.4498965229761011  0.634839774122122  1.0000
  S   S12       1.0  0.41051253123974624  0.5501034763821127  0.365160225886332  1.0000
  I   I1        1.0  0.7206225752868778  0.13612365535936105  0.4353638130412072  1.0000
  I   I2        1.0  0.2793774247877793  0.8638763439988527  0.5646361869672469  1.0000
