data_image0
_chemical_formula_structural       H72C80N12O16
_chemical_formula_sum              "H72 C80 N12 O16"
_cell_length_a       10.027798775385412
_cell_length_b       18.473591203716982
_cell_length_c       9.31008146379768
_cell_angle_alpha    90.0
_cell_angle_beta     90.82743583543835
_cell_angle_gamma    90.0

_space_group_name_H-M_alt    "P 1"
_space_group_IT_number       1

loop_
  _space_group_symop_operation_xyz
  'x, y, z'

loop_
  _atom_site_type_symbol
  _atom_site_label
  _atom_site_symmetry_multiplicity
  _atom_site_fract_x
  _atom_site_fract_y
  _atom_site_fract_z
  _atom_site_occupancy
  H   H1        1.0  0.4589850350529916  0.45037951680591204  0.8920985718504937  1.0000
  H   H2        1.0  0.541014965594054  0.9503795167053094  0.6079014271908704  1.0000
  H   H3        1.0  0.5410149648825179  0.5496204829928829  0.10790142795640922  1.0000
  H   H4        1.0  0.45898503533877355  0.04962048309348545  0.39209857263714887  1.0000
  H   H5        1.0  0.29590784880159526  0.5920054238181652  0.3546813749322228  1.0000
  H   H6        1.0  0.7040921504275811  0.09200542391876776  0.14531862456621  1.0000
  H   H7        1.0  0.7040921511339141  0.40799457598062966  0.6453186248746801  1.0000
  H   H8        1.0  0.2959078495079282  0.9079945758800272  0.8546813752406929  1.0000
  H   H9        1.0  0.6447423932849924  0.6597215888131067  0.7182979453858757  1.0000
  H   H10       1.0  0.3552576063595317  0.15972158891370933  0.781702054708381  1.0000
  H   H11       1.0  0.3552576066505169  0.34027841152700145  0.28170205442102725  1.0000
  H   H12       1.0  0.6447423935759776  0.8402784114263988  0.21829794509852196  1.0000
  H   H13       1.0  0.20783209398530827  0.506708486009833  0.40475116367393865  1.0000
  H   H14       1.0  0.792167906235983  0.006708486110435566  0.09524883691961945  1.0000
  H   H15       1.0  0.7921679059449978  0.4932915137889619  0.5952488372069731  1.0000
  H   H16       1.0  0.2078320936995263  0.9932915136883593  0.9047511628872834  1.0000
  H   H17       1.0  0.03417234776097244  0.45484601815316483  0.308132159746642  1.0000
  H   H18       1.0  0.9658276514630005  0.9548460185938755  0.19186784082579975  1.0000
  H   H19       1.0  0.9658276521693336  0.54515398164563  0.6918678411342699  1.0000
  H   H20       1.0  0.03417234847250875  0.04515398174623262  0.8081321589811032  1.0000
  H   H21       1.0  0.8713509994097577  0.2602955054582179  0.49342323813521627  1.0000
  H   H22       1.0  0.12864900081673689  0.7602955058989286  0.006576761384332935  1.0000
  H   H23       1.0  0.12864900052575165  0.739704494340577  0.5065767616716866  1.0000
  H   H24       1.0  0.8713509991187723  0.23970449444117953  0.99342323842257  1.0000
  H   H25       1.0  0.028819690274374477  0.2728683656800716  0.6985023616785027  1.0000
  H   H26       1.0  0.9711803093701497  0.7728683655794691  0.801497638415754  1.0000
  H   H27       1.0  0.9711803096559316  0.7271316346600365  0.30149763920240924  1.0000
  H   H28       1.0  0.028819690565359737  0.2271316342193258  0.19850236139114882  1.0000
  H   H29       1.0  0.1934110469034038  0.3738817208757055  0.7074570263318379  1.0000
  H   H30       1.0  0.8065889537384386  0.8738817207751028  0.792542973783535  1.0000
  H   H31       1.0  0.8065889540294238  0.6261182794644027  0.2925429734961813  1.0000
  H   H32       1.0  0.1934110461970708  0.12611827956500524  0.20745702602336788  1.0000
  H   H33       1.0  0.6989133452294722  0.3509784068782154  0.08411874899870715  1.0000
  H   H34       1.0  0.301086654991819  0.8509784067776128  0.41588125159485095  1.0000
  H   H35       1.0  0.3010866547008338  0.6490215929205795  0.9158812518822047  1.0000
  H   H36       1.0  0.6989133449436903  0.149021593021182  0.584118748212052  1.0000
  H   H37       1.0  0.3638398722108902  0.6383163116453173  0.1478628848439464  1.0000
  H   H38       1.0  0.6361601280156045  0.13831631174591982  0.35213711467560277  1.0000
  H   H39       1.0  0.6361601277246192  0.3616836886947909  0.8521371149629565  1.0000
  H   H40       1.0  0.3638398719199049  0.8616836885941883  0.6478628851313002  1.0000
  H   H41       1.0  0.34294560262512264  0.7336764844765504  0.1094796946127548  1.0000
  H   H42       1.0  0.6570543965988503  0.23367648457715295  0.3905203059596869  1.0000
  H   H43       1.0  0.6570543973103867  0.26632351586355774  0.8905203051941483  1.0000
  H   H44       1.0  0.34294560333665897  0.7663235157629552  0.609479693847216  1.0000
  H   H45       1.0  0.2365254397631522  0.6890141819008611  0.2347209107072878  1.0000
  H   H46       1.0  0.7634745604633424  0.18901418146015042  0.26527908881226137  1.0000
  H   H47       1.0  0.763474560172357  0.310985818439247  0.7652790890996152  1.0000
  H   H48       1.0  0.23652543947216692  0.8109858183386445  0.7347209109946415  1.0000
  H   H49       1.0  0.6643291004879398  0.7807039606407518  0.6997428322312563  1.0000
  H   H50       1.0  0.3356709001539026  0.28070396074135434  0.8002571678841167  1.0000
  H   H51       1.0  0.33567089944756956  0.2192960391580431  0.30025716757564663  1.0000
  H   H52       1.0  0.664329100778925  0.7192960395987538  0.19974283194390263  1.0000
  H   H53       1.0  0.7472337972830218  0.8257840921006511  0.5545320080347734  1.0000
  H   H54       1.0  0.25276620335882055  0.3257840922012536  0.9454679920805996  1.0000
  H   H55       1.0  0.2527662026524876  0.17421590769814388  0.4454679917721296  1.0000
  H   H56       1.0  0.7472337975688037  0.6742159075975414  0.054532008821428564  1.0000
  H   H57       1.0  0.7931792919672402  0.7345382573622034  0.6029299481849586  1.0000
  H   H58       1.0  0.20682070867460214  0.2345382574628059  0.8970700519304146  1.0000
  H   H59       1.0  0.20682070796826915  0.26546174243659154  0.39707005162194436  1.0000
  H   H60       1.0  0.7931792922582255  0.7654617428773022  0.1029299478976048  1.0000
  H   H61       1.0  0.6397572684020448  0.5502225705825315  0.8615663780641462  1.0000
  H   H62       1.0  0.36024273223979747  0.05022257068313408  0.6384336220512269  1.0000
  H   H63       1.0  0.3602427315334644  0.4497774297575767  0.13843362174275678  1.0000
  H   H64       1.0  0.6397572686930301  0.9497774296569741  0.36156637777679246  1.0000
  H   H65       1.0  0.9032554967268799  0.5227071349320054  0.12041395534057898  1.0000
  H   H66       1.0  0.09674450349441148  0.02270713449129469  0.3795860452529791  1.0000
  H   H67       1.0  0.09674450420074446  0.4772928654081028  0.8795860455614493  1.0000
  H   H68       1.0  0.9032554964410979  0.9772928653075003  0.6204139545539238  1.0000
  H   H69       1.0  0.975925624724734  0.5825683859364932  0.9987491547633971  1.0000
  H   H70       1.0  0.024074374919790243  0.08256838603709575  0.5012508453308594  1.0000
  H   H71       1.0  0.024074375205572183  0.417431614403615  0.0012508461175146192  1.0000
  H   H72       1.0  0.9759256250157191  0.9174316143030125  0.4987491544760435  1.0000
  C   C1        1.0  0.43938291697824555  0.4831510512262574  0.7965588396684259  1.0000
  C   C2        1.0  0.5606170836688001  0.9831510511256548  0.7034411593729382  1.0000
  C   C3        1.0  0.5606170829572639  0.5168489485725376  0.20344116013847705  1.0000
  C   C4        1.0  0.4393829162667091  0.01684894867314011  0.2965588404339647  1.0000
  C   C5        1.0  0.31519911122125527  0.499460405302436  0.5911107632222378  1.0000
  C   C6        1.0  0.6848008884232688  0.9994604052018335  0.9088892368720188  1.0000
  C   C7        1.0  0.684800888714254  0.5005395944963589  0.4088892365846651  1.0000
  C   C8        1.0  0.3151991115122405  0.0005395945969614363  0.09111076293488413  1.0000
  C   C9        1.0  0.3710007688722912  0.6064866222516443  0.4351278270872387  1.0000
  C   C10       1.0  0.628999231349  0.10648662235224687  0.06487217350631945  1.0000
  C   C11       1.0  0.6289992310632181  0.39351337808846387  0.5648721727196643  1.0000
  C   C12       1.0  0.371000768581306  0.8935133779878613  0.9351278273745923  1.0000
  C   C13       1.0  0.44691428424139634  0.6678969294025214  0.4146130460228185  1.0000
  C   C14       1.0  0.5530857159850984  0.1678969295031239  0.08538695349673069  1.0000
  C   C15       1.0  0.553085715694113  0.3321030709375868  0.5853869537840843  1.0000
  C   C16       1.0  0.44691428395041105  0.8321030708369843  0.9146130463101723  1.0000
  C   C17       1.0  0.5477278098614354  0.6881092381995716  0.517916881843046  1.0000
  C   C18       1.0  0.452272190780407  0.1881092383001742  0.9820831182723269  1.0000
  C   C19       1.0  0.45227219007407393  0.31189076159922324  0.48208311796385683  1.0000
  C   C20       1.0  0.5477278091551023  0.8118907620399339  0.017916881534575952  1.0000
  C   C21       1.0  0.5702461405839137  0.6450966744139163  0.6374888594398688  1.0000
  C   C22       1.0  0.42975385906061053  0.14509667451451877  0.8625111406543879  1.0000
  C   C23       1.0  0.42975385935159577  0.3549033253848787  0.3625111403670342  1.0000
  C   C24       1.0  0.5702461408696955  0.854903325284276  0.13748886022652387  1.0000
  C   C25       1.0  0.4936428586312412  0.5821826401482804  0.6582349211507164  1.0000
  C   C26       1.0  0.5063571410184863  0.08218264024888289  0.8417650778695314  1.0000
  C   C27       1.0  0.506357141304268  0.41781735965051453  0.34176507865618655  1.0000
  C   C28       1.0  0.49364285891702314  0.9178173595499121  0.15823492193737157  1.0000
  C   C29       1.0  0.39229483611747146  0.5627290717523481  0.5574253057558621  1.0000
  C   C30       1.0  0.607705164524371  0.06272907185295068  0.942574694359511  1.0000
  C   C31       1.0  0.6077051648153562  0.43727092858776  0.44257469407215727  1.0000
  C   C32       1.0  0.39229483541113847  0.9372709284871575  0.05742530544739203  1.0000
  C   C33       1.0  0.1271682986504357  0.4198904752444276  0.5064835283728479  1.0000
  C   C34       1.0  0.8728317019914066  0.919890475143825  0.9935164717425251  1.0000
  C   C35       1.0  0.8728317022823919  0.5801095245543673  0.4935164714551713  1.0000
  C   C36       1.0  0.1271682979441027  0.08010952465496987  0.00648352806437786  1.0000
  C   C37       1.0  0.03536571851291456  0.4138089181307574  0.3917974695427267  1.0000
  C   C38       1.0  0.96463428171358  0.9138089185714682  0.10820252997682253  1.0000
  C   C39       1.0  0.9646342814225947  0.5861910816680375  0.6082025302641763  1.0000
  C   C40       1.0  0.035365718221929306  0.08619108176864006  0.8917974698300806  1.0000
  C   C41       1.0  0.9437841552974662  0.35664211237251847  0.3851334813236639  1.0000
  C   C42       1.0  0.05621584492902843  0.8566421122719159  0.1148665181958853  1.0000
  C   C43       1.0  0.056215844638043175  0.6433578874262764  0.614866518483239  1.0000
  C   C44       1.0  0.9437841550064808  0.14335788752687897  0.8851334816110176  1.0000
  C   C45       1.0  0.9419526436973025  0.3049960713034689  0.49657475547721486  1.0000
  C   C46       1.0  0.05804735652919205  0.8049960712028663  0.0034252440423344155  1.0000
  C   C47       1.0  0.05804735623820678  0.695003928495326  0.5034252443296882  1.0000
  C   C48       1.0  0.9419526444036356  0.19500392859592855  0.9965747557856849  1.0000
  C   C49       1.0  0.03098928011012005  0.3124084162281768  0.6116475015771199  1.0000
  C   C50       1.0  0.9690107205317221  0.8124084161275742  0.8883524985382529  1.0000
  C   C51       1.0  0.9690107198253894  0.6875915841119313  0.388352498229783  1.0000
  C   C52       1.0  0.030989279398583734  0.18759158367122064  0.11164750234265872  1.0000
  C   C53       1.0  0.1235943581937209  0.3687351979851875  0.6183118441773412  1.0000
  C   C54       1.0  0.8764056414508031  0.8687351984258983  0.8816881559169155  1.0000
  C   C55       1.0  0.8764056417417885  0.6312648018136073  0.38168815562956177  1.0000
  C   C56       1.0  0.12359435848470618  0.13126480191420992  0.11831184388998746  1.0000
  C   C57       1.0  0.8524498763301068  0.3529693749360449  0.2670094489764569  1.0000
  C   C58       1.0  0.14755012389118433  0.8529693748354424  0.2329905516171012  1.0000
  C   C59       1.0  0.1475501236054024  0.64703062486275  0.7329905508304461  1.0000
  C   C60       1.0  0.8524498760443249  0.14703062496335254  0.7670094481898018  1.0000
  C   C61       1.0  0.7734704196207655  0.35162804559045374  0.16710250601250848  1.0000
  C   C62       1.0  0.22652958060572914  0.8516280460311645  0.33289749350704073  1.0000
  C   C63       1.0  0.2265295803147439  0.6483719542083412  0.8328974937943944  1.0000
  C   C64       1.0  0.7734704193297802  0.14837195430894368  0.6671025062998621  1.0000
  C   C65       1.0  0.33794322696206097  0.6916793989372808  0.19185999244599825  1.0000
  C   C66       1.0  0.6620567722671153  0.1916793990378834  0.30814000705243455  1.0000
  C   C67       1.0  0.6620567729734483  0.308320600861514  0.8081400073609046  1.0000
  C   C68       1.0  0.3379432276683939  0.8083206013022248  0.6918599927544684  1.0000
  C   C69       1.0  0.7110449732533644  0.7738347781087453  0.5946297275056212  1.0000
  C   C70       1.0  0.28895502738847795  0.2738347782093479  0.9053702726097519  1.0000
  C   C71       1.0  0.28895502668214496  0.22616522169004954  0.4053702723012818  1.0000
  C   C72       1.0  0.7110449725470315  0.7261652221307603  0.09462972719715107  1.0000
  C   C73       1.0  0.826306355752944  0.514514380836118  0.9082721182526948  1.0000
  C   C74       1.0  0.17369364488889819  0.01451438039540738  0.5917278818626783  1.0000
  C   C75       1.0  0.17369364517988345  0.48548561950399005  0.09172788157532452  1.0000
  C   C76       1.0  0.8263063550466113  0.9854856194033875  0.4082721179442247  1.0000
  C   C77       1.0  0.9425828403958967  0.5260922775017629  0.010835951790668711  1.0000
  C   C78       1.0  0.0574171598253945  0.026092277602365453  0.48916404880288933  1.0000
  C   C79       1.0  0.05741715953961256  0.473907722297032  0.9891640480162341  1.0000
  C   C80       1.0  0.9425828401049113  0.9739077221964294  0.5108359520780223  1.0000
  N   N1        1.0  0.5175811960876565  0.5400685178089562  0.7774676085370946  1.0000
  N   N2        1.0  0.48241880355686745  0.04006851736824544  0.722532391557162  1.0000
  N   N3        1.0  0.4824188038426494  0.459931482531152  0.22253239234381716  1.0000
  N   N4        1.0  0.5175811963786418  0.9599314824305494  0.2774676082497409  1.0000
  N   N5        1.0  0.3384205284354511  0.46146077587149154  0.7115880280632227  1.0000
  N   N6        1.0  0.6615794712090729  0.961460775770889  0.788411972031034  1.0000
  N   N7        1.0  0.6615794715000582  0.5385392239273034  0.2884119717436802  1.0000
  N   N8        1.0  0.3384205287264364  0.03853922402790587  0.211588027775869  1.0000
  N   N9        1.0  0.21605705561497543  0.47821039031233414  0.4987956319600534  1.0000
  N   N10       1.0  0.7839429446115191  0.9782103902117316  0.0012043675594958204  1.0000
  N   N11       1.0  0.7839429443205339  0.5217896094864607  0.5012043678468496  1.0000
  N   N12       1.0  0.21605705532399017  0.021789609587063313  0.9987956322474071  1.0000
  O   O1        1.0  0.43291233439952614  0.7129399933538648  0.3000003706782895  1.0000
  O   O2        1.0  0.5670876658217653  0.2129399929131541  0.19999962991526862  1.0000
  O   O3        1.0  0.5670876655359832  0.28706000698624334  0.6999996291286135  1.0000
  O   O4        1.0  0.4329123341137442  0.7870600068856408  0.8000003698916344  1.0000
  O   O5        1.0  0.6134625755282817  0.7503123164926971  0.4895955131305445  1.0000
  O   O6        1.0  0.3865374246930096  0.2503123165932996  0.010404487463013612  1.0000
  O   O7        1.0  0.3865374244072277  0.2496876833060978  0.5104044866763584  1.0000
  O   O8        1.0  0.6134625752372964  0.7496876832054953  0.9895955134178983  1.0000
  O   O9        1.0  0.8252806688151496  0.46723612722702734  0.8130408096094388  1.0000
  O   O10       1.0  0.17471933082937446  0.9672361271264248  0.6869591904848178  1.0000
  O   O11       1.0  0.1747193311151564  0.5327638731130808  0.18695919127147306  1.0000
  O   O12       1.0  0.825280669106135  0.032763873213683396  0.3130408093220851  1.0000
  O   O13       1.0  0.7280269692980533  0.5604982970456031  0.9298504062790113  1.0000
  O   O14       1.0  0.27197303034647075  0.060498296604892345  0.5701495938152453  1.0000
  O   O15       1.0  0.27197303063225275  0.4395017032945051  0.07014959460190044  1.0000
  O   O16       1.0  0.7280269695890385  0.9395017031939026  0.4298504059916577  1.0000
