data_image0
_chemical_formula_structural       H40C32N56O56
_chemical_formula_sum              "H40 C32 N56 O56"
_cell_length_a       7.8303021562053265
_cell_length_b       21.184400581700846
_cell_length_c       11.193785453048099
_cell_angle_alpha    90.0
_cell_angle_beta     91.99974805385756
_cell_angle_gamma    90.0

_space_group_name_H-M_alt    "P 1"
_space_group_IT_number       1

loop_
  _space_group_symop_operation_xyz
  'x, y, z'

loop_
  _atom_site_type_symbol
  _atom_site_label
  _atom_site_symmetry_multiplicity
  _atom_site_fract_x
  _atom_site_fract_y
  _atom_site_fract_z
  _atom_site_occupancy
  H   H1        1.0  0.05456966240771627  0.9051826208650943  0.2098181507274013  1.0000
  H   H2        1.0  0.4454303373429631  0.4051826209052381  0.29018184874090636  1.0000
  H   H3        1.0  0.9454303370925051  0.09481737905461803  0.7901818491025386  1.0000
  H   H4        1.0  0.5545696634351259  0.5948173790144742  0.7098181511210215  1.0000
  H   H5        1.0  0.6342702436438349  0.9169862637878964  0.9905343673568177  1.0000
  H   H6        1.0  0.865729755607066  0.4169862638280403  0.5094656319414301  1.0000
  H   H7        1.0  0.36572975585638656  0.08301373613181583  0.009465632473122416  1.0000
  H   H8        1.0  0.13427024389315537  0.583013736091672  0.49053436788851  1.0000
  H   H9        1.0  0.5945729373584883  0.8280794961530871  0.12239275877323781  1.0000
  H   H10       1.0  0.9054270627594256  0.32807949619323085  0.3776072413223616  1.0000
  H   H11       1.0  0.40542706214173313  0.17192050376662532  0.8776072410567023  1.0000
  H   H12       1.0  0.09457293801752585  0.6719205037264815  0.622392759432891  1.0000
  H   H13       1.0  0.9672609503023912  0.8108309604397076  0.7901151503943672  1.0000
  H   H14       1.0  0.5327390502252396  0.31083096047985154  0.709884849829193  1.0000
  H   H15       1.0  0.03273905047569776  0.1891690394800046  0.20988484946756067  1.0000
  H   H16       1.0  0.4672609505528493  0.6891690394398607  0.29011515003273475  1.0000
  H   H17       1.0  0.9183505236593452  0.7199309922025421  0.9203159707194535  1.0000
  H   H18       1.0  0.5816494755904181  0.21993099224268592  0.579684029472119  1.0000
  H   H19       1.0  0.0816494758397387  0.28006900771717025  0.07968403000381126  1.0000
  H   H20       1.0  0.41835052390980326  0.7800690076770264  0.42031597035782114  1.0000
  H   H21       1.0  0.24057103343882277  0.8445895129766039  0.09848387597039045  1.0000
  H   H22       1.0  0.25942896631185663  0.3445895130167476  0.4015161234979172  1.0000
  H   H23       1.0  0.7594289673392662  0.15541048694310852  0.9015161238915373  1.0000
  H   H24       1.0  0.7405710331883647  0.6554104869029647  0.5984838763320228  1.0000
  H   H25       1.0  0.2774253703691779  0.9985108499256715  0.6476446489216691  1.0000
  H   H26       1.0  0.2225746297912185  0.4985108499658153  0.8523553506745996  1.0000
  H   H27       1.0  0.7225746291310434  0.0014891499940409068  0.352355350908271  1.0000
  H   H28       1.0  0.7774253709868705  0.501489149953897  0.1476446491873284  1.0000
  H   H29       1.0  0.43675850963871665  0.9391906659462621  0.6324916623047779  1.0000
  H   H30       1.0  0.0632414892426746  0.43919066598640594  0.8675083381528276  1.0000
  H   H31       1.0  0.5632414898615046  0.06080933397345022  0.3675083375251621  1.0000
  H   H32       1.0  0.9367585102564093  0.5608093339333063  0.13249166257043732  1.0000
  H   H33       1.0  0.7390425732842036  0.980798115569424  0.56687377417108  1.0000
  H   H34       1.0  0.7609574272445647  0.4807981156095678  0.9331262251591554  1.0000
  H   H35       1.0  0.26095742749388534  0.019201884350288308  0.43312622569084797  1.0000
  H   H36       1.0  0.23904257353352426  0.5192018847821899  0.06687377470277227  1.0000
  H   H37       1.0  0.7523824933679983  0.06441434982959716  0.5443375219447801  1.0000
  H   H38       1.0  0.74761750716077  0.5644143497894534  0.9556624773854554  1.0000
  H   H39       1.0  0.2476175074100906  0.9355856500901151  0.4556624779171477  1.0000
  H   H40       1.0  0.25238249233945137  0.43558565013025896  0.04433752244448468  1.0000
  C   C1        1.0  0.983804752755138  0.8804648372308329  0.1381229658506256  1.0000
  C   C2        1.0  0.5161952460849081  0.3804648372709768  0.36187703421298606  1.0000
  C   C3        1.0  0.016195246745083214  0.11953516268887929  0.8618770339793146  1.0000
  C   C4        1.0  0.4838047534153132  0.6195351626487355  0.638122965616954  1.0000
  C   C5        1.0  0.7486108942308255  0.8876716108854003  0.0004971592072666739  1.0000
  C   C6        1.0  0.7513891058870884  0.38767161092554403  0.4995028408883328  1.0000
  C   C7        1.0  0.2513891065472635  0.11232838903431208  0.9995028406546611  1.0000
  C   C8        1.0  0.2486108936131329  0.6123283889941683  0.5004971589416073  1.0000
  C   C9        1.0  0.7221931106792507  0.829191863713789  0.08605292831594956  1.0000
  C   C10       1.0  0.7778068894398006  0.3291918632818874  0.41394707088632515  1.0000
  C   C11       1.0  0.2778068900988383  0.17080813667796882  0.9139470715459782  1.0000
  C   C12       1.0  0.2221931100604207  0.670808136637825  0.5860529289436149  1.0000
  C   C13       1.0  0.9441293037587656  0.8240038755252095  0.8826457281695528  1.0000
  C   C14       1.0  0.5558706954909977  0.3240038755653533  0.6173542720220196  1.0000
  C   C15       1.0  0.05587069574145573  0.17599612439450282  0.11735427166038731  1.0000
  C   C16       1.0  0.4441293040080862  0.675996124354359  0.3826457287012451  1.0000
  C   C17       1.0  0.9144303722441851  0.7652305453477437  0.966797859590466  1.0000
  C   C18       1.0  0.5855696270055782  0.26523054538788765  0.5332021406011064  1.0000
  C   C19       1.0  0.08556962725603624  0.2347694545719685  0.03320214023947401  1.0000
  C   C20       1.0  0.41443037249350567  0.7347694545318246  0.4667978601221584  1.0000
  C   C21       1.0  0.1106882093869237  0.839036868730365  0.06146732274653085  1.0000
  C   C22       1.0  0.38931179036261826  0.33903686877050876  0.43853267761510156  1.0000
  C   C23       1.0  0.8893117901132976  0.16096313118934735  0.9385326770834092  1.0000
  C   C24       1.0  0.6106882104143333  0.6609631311492035  0.5614673231401511  1.0000
  C   C25       1.0  0.3867049334006528  0.9840576153949534  0.596121648099807  1.0000
  C   C26       1.0  0.11329506675974357  0.4840576154350973  0.9038783514964615  1.0000
  C   C27       1.0  0.6132950673774362  0.01594238452475885  0.40387835176212067  1.0000
  C   C28       1.0  0.8867049327404778  0.515942384484615  0.09612164833347868  1.0000
  C   C29       1.0  0.6696879804377385  0.02311810514115003  0.5347045296057499  1.0000
  C   C30       1.0  0.8303120188131623  0.5231181051010062  0.9652954696924979  1.0000
  C   C31       1.0  0.3303120190624829  0.9768818947785622  0.46529547022419027  1.0000
  C   C32       1.0  0.169687980687059  0.47688189481870613  0.03470453013744216  1.0000
  N   N1        1.0  0.8886687437194918  0.9234944691755483  0.05940980267988379  1.0000
  N   N2        1.0  0.6113312563984221  0.4234944692156921  0.4405901974157156  1.0000
  N   N3        1.0  0.11133125578072951  0.07650553074416401  0.9405901971500562  1.0000
  N   N4        1.0  0.3886687443796669  0.5765055307040202  0.5594098024462122  1.0000
  N   N5        1.0  0.853855536282656  0.9854018733969759  0.10009170066788366  1.0000
  N   N6        1.0  0.6461444638352579  0.48540187296507425  0.39990829942771583  1.0000
  N   N7        1.0  0.14614446321642785  0.014598126994781876  0.899908300055381  1.0000
  N   N8        1.0  0.3538555369428311  0.514598126954638  0.6000917004342121  1.0000
  N   N9        1.0  0.8533989380626619  0.8381966320698395  0.18239093338642912  1.0000
  N   N10       1.0  0.646601062055252  0.3381966321099834  0.31760906670917033  1.0000
  N   N11       1.0  0.14660106143755938  0.16180336784987273  0.8176090664435108  1.0000
  N   N12       1.0  0.353398938722837  0.6618033678097289  0.6823909331527576  1.0000
  N   N13       1.0  0.7969149186879227  0.8460439520522421  0.3003409453699536  1.0000
  N   N14       1.0  0.7030850814299912  0.3460439520923859  0.19965905472564582  1.0000
  N   N15       1.0  0.20308508081229862  0.1539560483395157  0.6996590544599864  1.0000
  N   N16       1.0  0.29691491934809777  0.6539560482993718  0.800340945136282  1.0000
  N   N17       1.0  0.7967230935342788  0.8643961432554159  0.8853531712452944  1.0000
  N   N18       1.0  0.7032769057154845  0.3643961432955597  0.6146468289462781  1.0000
  N   N19       1.0  0.20327690596594244  0.13560385666429645  0.1146468285846457  1.0000
  N   N20       1.0  0.2967230937835995  0.6356038566241526  0.3853531717769867  1.0000
  N   N21       1.0  0.7672220653904056  0.9049369174296855  0.7859633678073003  1.0000
  N   N22       1.0  0.7327779338604951  0.4049369174698293  0.7140366314909475  1.0000
  N   N23       1.0  0.2327779341098157  0.09506308249002683  0.21403663202263984  1.0000
  N   N24       1.0  0.2672220656397262  0.5950630829219284  0.28596336833899255  1.0000
  N   N25       1.0  0.7521442198224023  0.7718815383487782  0.022191285958945837  1.0000
  N   N26       1.0  0.7478557802955116  0.271881538388922  0.4778087141366536  1.0000
  N   N27       1.0  0.24785578095568667  0.22811846157093416  0.9778087139029821  1.0000
  N   N28       1.0  0.25214421920470975  0.7281184615307903  0.5221912856932864  1.0000
  N   N29       1.0  0.6398184693525788  0.720284909698158  0.0318262013257645  1.0000
  N   N30       1.0  0.860181530765335  0.22028490973830184  0.468173798769835  1.0000
  N   N31       1.0  0.36018153014764254  0.27971509022155433  0.9681737985041755  1.0000
  N   N32       1.0  0.13981847001161643  0.7797150901814105  0.5318262019854176  1.0000
  N   N33       1.0  0.09690135828242957  0.8561115486867312  0.935974410558613  1.0000
  N   N34       1.0  0.4030986418768294  0.356111548726875  0.5640255899309802  1.0000
  N   N35       1.0  0.9030986412177918  0.14388845123298116  0.06402558927132705  1.0000
  N   N36       1.0  0.5969013589001223  0.6438884511928373  0.43597441082427235  1.0000
  N   N37       1.0  0.24932116364223528  0.8500364501960441  0.8704114911991188  1.0000
  N   N38       1.0  0.25067883651816114  0.35003645023618796  0.6295885083971496  1.0000
  N   N39       1.0  0.750678835857986  0.14996354972366818  0.12958850863082122  1.0000
  N   N40       1.0  0.7493211642599279  0.6499635496835243  0.3704114914647782  1.0000
  N   N41       1.0  0.059481341791907484  0.7729811399122097  0.05246031768845354  1.0000
  N   N42       1.0  0.44051865795877193  0.27298113995235357  0.44753968177985415  1.0000
  N   N43       1.0  0.9405186577083139  0.22701886000750252  0.9475396821414865  1.0000
  N   N44       1.0  0.5594813428193172  0.7270188599673587  0.5524603180820737  1.0000
  N   N45       1.0  0.090220293805873  0.7315452198060614  0.14544589114737075  1.0000
  N   N46       1.0  0.4097797059436689  0.23154521984620519  0.3545541092142616  1.0000
  N   N47       1.0  0.9097797056932109  0.26845478058569644  0.8545541095758941  1.0000
  N   N48       1.0  0.5902202935565524  0.7684547805455526  0.6454458906156784  1.0000
  N   N49       1.0  0.5392322792331533  0.06452239772980432  0.7112406975911062  1.0000
  N   N50       1.0  0.9607677212944776  0.5645223976896604  0.7887593026324542  1.0000
  N   N51       1.0  0.46076772026706797  0.9354776021899079  0.2887593022388339  1.0000
  N   N52       1.0  0.03923227948361146  0.4354776022300518  0.21124069722947378  1.0000
  N   N53       1.0  0.5199254411381681  0.03222788661718109  0.60703808331763  1.0000
  N   N54       1.0  0.9800745593894629  0.5322278865770372  0.8929619169059303  1.0000
  N   N55       1.0  0.48007455836205326  0.9677721133025311  0.39296191651231005  1.0000
  N   N56       1.0  0.019925441387488654  0.46777211334267504  0.10703808384932233  1.0000
  O   O1        1.0  0.7429249336740262  0.01456614213887874  0.042669729551630294  1.0000
  O   O2        1.0  0.7570750664438877  0.5145661420987349  0.45733027054396913  1.0000
  O   O3        1.0  0.2570750658261951  0.9854338577808336  0.9573302702783096  1.0000
  O   O4        1.0  0.24292493305633361  0.4854338578209774  0.542669729285971  1.0000
  O   O5        1.0  0.9446177064673894  0.0052355689542524265  0.18421998496060668  1.0000
  O   O6        1.0  0.5553822936505245  0.5052355689141086  0.3157800151349927  1.0000
  O   O7        1.0  0.05538229431069958  0.9947644314375054  0.8157800149013212  1.0000
  O   O8        1.0  0.44461770584969684  0.49476443100560374  0.6842199846949473  1.0000
  O   O9        1.0  0.6709308773345688  0.8139598967409434  0.32480640487091195  1.0000
  O   O10       1.0  0.8290691227833451  0.31395989678108716  0.1751935952246875  1.0000
  O   O11       1.0  0.32906912216565254  0.18604010317876904  0.6751935949590281  1.0000
  O   O12       1.0  0.1709308767168762  0.6860401031386252  0.8248064046052526  1.0000
  O   O13       1.0  0.8810649651830458  0.8805643024005871  0.3676105563092432  1.0000
  O   O14       1.0  0.618935034934868  0.3805643024407311  0.13238944378635628  1.0000
  O   O15       1.0  0.11893503559504318  0.1194356975191251  0.6323894435526848  1.0000
  O   O16       1.0  0.3810649645653532  0.6194356974789812  0.8676105560435838  1.0000
  O   O17       1.0  0.8430784550542418  0.8924409079731486  0.6948801613897324  1.0000
  O   O18       1.0  0.6569215454745265  0.3924409080132924  0.8051198379405031  1.0000
  O   O19       1.0  0.15692154572384714  0.10755909194656374  0.3051198384721954  1.0000
  O   O20       1.0  0.3430784540256948  0.60755909190642  0.19488016188943696  1.0000
  O   O21       1.0  0.6632896990203754  0.9476291935935546  0.8003686360279951  1.0000
  O   O22       1.0  0.8367103015083931  0.44762919363369835  0.6996313633022405  1.0000
  O   O23       1.0  0.336710300479846  0.05237080632615781  0.199631363801945  1.0000
  O   O24       1.0  0.16328969926969591  0.552370806286014  0.30036863655968743  1.0000
  O   O25       1.0  0.6834335041518013  0.671068354054822  0.9839459138374128  1.0000
  O   O26       1.0  0.8165664963758297  0.1710683540949658  0.5160540863861475  1.0000
  O   O27       1.0  0.3165664953484201  0.3289316458648904  0.016054085992527223  1.0000
  O   O28       1.0  0.18343350440112188  0.8289316458247465  0.4839459143691052  1.0000
  O   O29       1.0  0.5069697081857428  0.7304832327126227  0.08464698179277712  1.0000
  O   O30       1.0  0.993030291932171  0.23048323275276658  0.41535301830282234  1.0000
  O   O31       1.0  0.4930302913144785  0.26951676720708956  0.915353018037163  1.0000
  O   O32       1.0  0.006969708845917911  0.7695167671669457  0.5846469815591055  1.0000
  O   O33       1.0  0.3857678950039944  0.8497538936999603  0.9285208027086822  1.0000
  O   O34       1.0  0.11423210515526461  0.34975389374010424  0.5714791977809109  1.0000
  O   O35       1.0  0.6142321044950896  0.15024610621975193  0.07147919801458263  1.0000
  O   O36       1.0  0.8857678956228244  0.6502461061796081  0.4285208020810168  1.0000
  O   O37       1.0  0.22884414081776847  0.8487253552753792  0.7613373164486293  1.0000
  O   O38       1.0  0.271155859342628  0.348725355315523  0.7386626831476389  1.0000
  O   O39       1.0  0.7711558586824528  0.15127464464433313  0.2386626833813106  1.0000
  O   O40       1.0  0.7288441414354611  0.6512746446041893  0.26133731671428884  1.0000
  O   O41       1.0  0.17886962826380245  0.7522476507437976  0.2308785169835638  1.0000
  O   O42       1.0  0.32113037148573953  0.25224765078394135  0.2691214833780686  1.0000
  O   O43       1.0  0.821130371236419  0.24775234917591474  0.7691214828463763  1.0000
  O   O44       1.0  0.6788696280144819  0.7477523491357709  0.7308785164518715  1.0000
  O   O45       1.0  0.02975651493154311  0.6781817599507701  0.1337177832281831  1.0000
  O   O46       1.0  0.4702434848191363  0.17818175999091404  0.3662822162401246  1.0000
  O   O47       1.0  0.9702434845686783  0.32181823996894215  0.8662822166017571  1.0000
  O   O48       1.0  0.529756514681085  0.8218182399287983  0.6337177835898155  1.0000
  O   O49       1.0  0.6698779009087302  0.09737763936459587  0.7276864749371033  1.0000
  O   O50       1.0  0.8301220996200381  0.597377639324452  0.7723135243931322  1.0000
  O   O51       1.0  0.33012209859149105  0.9026223605551165  0.2723135248928367  1.0000
  O   O52       1.0  0.16987790115805088  0.4026223605952603  0.22768647546879564  1.0000
  O   O53       1.0  0.4213266530807618  0.061366341945164694  0.7833464743886966  1.0000
  O   O54       1.0  0.07867334707849716  0.5613663419050209  0.7166535261008966  1.0000
  O   O55       1.0  0.5786733476961897  0.9386336579745476  0.2166535263665559  1.0000
  O   O56       1.0  0.9213266524217242  0.43863365801469145  0.28334647372904354  1.0000
