data_image0
_chemical_formula_structural       H100B40C60N12O80
_chemical_formula_sum              "H100 B40 C60 N12 O80"
_cell_length_a       15.275394956019197
_cell_length_b       11.490546972919308
_cell_length_c       17.550579470133574
_cell_angle_alpha    90.0
_cell_angle_beta     110.91854637553114
_cell_angle_gamma    90.0

_space_group_name_H-M_alt    "P 1"
_space_group_IT_number       1

loop_
  _space_group_symop_operation_xyz
  'x, y, z'

loop_
  _atom_site_type_symbol
  _atom_site_label
  _atom_site_symmetry_multiplicity
  _atom_site_fract_x
  _atom_site_fract_y
  _atom_site_fract_z
  _atom_site_occupancy
  H   H1        1.0  0.758890497178958  0.6636742452707219  0.8202187504237549  1.0000
  H   H2        1.0  0.25889049689979243  0.16367424583289308  0.8202187504837783  1.0000
  H   H3        1.0  0.24110950279252824  0.6636742452707219  0.6797812494206261  1.0000
  H   H4        1.0  0.7411095030716938  0.16367424583289308  0.6797812493606026  1.0000
  H   H5        1.0  0.24110950285225513  0.3363257544752164  0.17978124963508121  1.0000
  H   H6        1.0  0.7411095031314208  0.8363257547833259  0.1797812495750577  1.0000
  H   H7        1.0  0.7588904972386848  0.3363257544752164  0.32021875063821  1.0000
  H   H8        1.0  0.2588904969595193  0.8363257547833259  0.3202187506982335  1.0000
  H   H9        1.0  0.7366931946083761  0.11056727699684256  0.8149422882876595  1.0000
  H   H10       1.0  0.2366931943292106  0.6105672773049521  0.814942288347683  1.0000
  H   H11       1.0  0.2633068053631101  0.11056727699684256  0.6850577115567215  1.0000
  H   H12       1.0  0.7633068056422758  0.6105672773049521  0.685057711496698  1.0000
  H   H13       1.0  0.263306805422837  0.8894327227490958  0.18505771177117664  1.0000
  H   H14       1.0  0.7633068057020025  0.3894327224409863  0.18505771171115312  1.0000
  H   H15       1.0  0.7366931946681029  0.8894327227490958  0.31494228850211453  1.0000
  H   H16       1.0  0.23669319438893743  0.3894327224409863  0.314942288562138  1.0000
  H   H17       1.0  0.04730812499670148  0.3893858647934549  0.7048221822403283  1.0000
  H   H18       1.0  0.5473081248682028  0.8893858651015644  0.7048221827880982  1.0000
  H   H19       1.0  0.9526918749747847  0.3893858647934549  0.7951778176040525  1.0000
  H   H20       1.0  0.4526918746956193  0.8893858651015644  0.7951778176640761  1.0000
  H   H21       1.0  0.9526918747866345  0.6106141349524834  0.2951778172085251  1.0000
  H   H22       1.0  0.45269187516301035  0.11061413551465457  0.2951778172707379  1.0000
  H   H23       1.0  0.04730812505642833  0.6106141349524834  0.20482218245478345  1.0000
  H   H24       1.0  0.5473081253355938  0.11061413551465457  0.2048221823947599  1.0000
  H   H25       1.0  0.7164946680919902  0.403364738068901  0.42369492476329806  1.0000
  H   H26       1.0  0.21649466846836618  0.9033647383770106  0.42369492482551085  1.0000
  H   H27       1.0  0.28350533175107245  0.403364738068901  0.07630507490001044  1.0000
  H   H28       1.0  0.7835053313746965  0.9033647383770106  0.07630507483779762  1.0000
  H   H29       1.0  0.28350533193922284  0.5966352616770373  0.5763050752955381  1.0000
  H   H30       1.0  0.7835053315628469  0.09663526223920843  0.5763050752333252  1.0000
  H   H31       1.0  0.7164946682801407  0.5966352616770373  0.9236949251588257  1.0000
  H   H32       1.0  0.21649466865651656  0.09663526223920843  0.9236949252210385  1.0000
  H   H33       1.0  0.40752088928593133  0.8292626662992639  0.49044320539695785  1.0000
  H   H34       1.0  0.9075208889095554  0.3292626659911544  0.490443205334745  1.0000
  H   H35       1.0  0.5924791108050087  0.8292626662992639  0.009556794876333402  1.0000
  H   H36       1.0  0.09247911093350733  0.3292626659911544  0.009556794328563541  1.0000
  H   H37       1.0  0.5924791107452818  0.1707373334466745  0.5095567946618782  1.0000
  H   H38       1.0  0.09247911112165771  0.670737333754784  0.5095567947240911  1.0000
  H   H39       1.0  0.40752088922620444  0.1707373334466745  0.9904432051825027  1.0000
  H   H40       1.0  0.9075208888498285  0.670737333754784  0.9904432051202898  1.0000
  H   H41       1.0  0.4527936916993736  0.6471989625495285  0.545623032431571  1.0000
  H   H42       1.0  0.9527936915708751  0.14719896311169955  0.5456230329793409  1.0000
  H   H43       1.0  0.5472063082721126  0.6471989625495285  0.95437696741281  1.0000
  H   H44       1.0  0.04720630864848845  0.14719896311169955  0.9543769674750228  1.0000
  H   H45       1.0  0.5472063080839622  0.35280103719640993  0.4543769670172824  1.0000
  H   H46       1.0  0.04720630846033815  0.8528010375045194  0.45437696707949526  1.0000
  H   H47       1.0  0.4527936917591005  0.35280103719640993  0.0456230326460261  1.0000
  H   H48       1.0  0.9527936913827245  0.8528010375045194  0.045623032583813276  1.0000
  H   H49       1.0  0.5986572693744978  0.5544463988541879  0.5329658437524506  1.0000
  H   H50       1.0  0.09865726909533237  0.05444639941635905  0.5329658438124742  1.0000
  H   H51       1.0  0.4013427305969884  0.5544463988541879  0.9670341560919303  1.0000
  H   H52       1.0  0.9013427308761538  0.05444639941635905  0.9670341560319068  1.0000
  H   H53       1.0  0.4013427306567152  0.4455536008917504  0.46703415630638545  1.0000
  H   H54       1.0  0.9013427309358808  0.9455536011998599  0.4670341562463619  1.0000
  H   H55       1.0  0.5986572694342247  0.4455536008917504  0.03296584396690574  1.0000
  H   H56       1.0  0.09865726915505921  0.9455536011998599  0.03296584402692927  1.0000
  H   H57       1.0  0.6799393487500934  0.6602301411655589  0.4521245747925184  1.0000
  H   H58       1.0  0.1799393491264693  0.16023014172773004  0.45212457485473123  1.0000
  H   H59       1.0  0.32006065134084655  0.6602301411655589  0.047875425480772775  1.0000
  H   H60       1.0  0.8200606509644706  0.16023014172773004  0.04787542541855994  1.0000
  H   H61       1.0  0.3200606512811197  0.33976985858037945  0.5478754252663177  1.0000
  H   H62       1.0  0.8200606509047438  0.8397698588884889  0.5478754252041048  1.0000
  H   H63       1.0  0.6799393486903665  0.33976985858037945  0.9521245745780633  1.0000
  H   H64       1.0  0.17993934906674247  0.8397698588884889  0.9521245746402761  1.0000
  H   H65       1.0  0.6190000926225755  0.8508433160789844  0.3903194511554608  1.0000
  H   H66       1.0  0.11900009299895138  0.3508433157708749  0.3903194512176737  1.0000
  H   H67       1.0  0.38099990746836454  0.8508433160789844  0.10968054911783034  1.0000
  H   H68       1.0  0.8809999070919886  0.3508433157708749  0.10968054905561754  1.0000
  H   H69       1.0  0.38099990740863765  0.1491566845372345  0.6096805489033753  1.0000
  H   H70       1.0  0.8809999070322618  0.6491566839750634  0.6096805488411624  1.0000
  H   H71       1.0  0.6190000925628486  0.1491566845372345  0.8903194509410057  1.0000
  H   H72       1.0  0.11900009293922446  0.6491566839750634  0.8903194510032185  1.0000
  H   H73       1.0  0.47642404159858087  0.9361871776298027  0.4125809370008889  1.0000
  H   H74       1.0  0.9764240421256236  0.4361871773216933  0.412580937550848  1.0000
  H   H75       1.0  0.5235759582444818  0.9361871776298027  0.08741906266241964  1.0000
  H   H76       1.0  0.02357595796531629  0.4361871773216933  0.08741906272244318  1.0000
  H   H77       1.0  0.523575958184755  0.06381282298641618  0.5874190624479646  1.0000
  H   H78       1.0  0.023575957905589414  0.563812822424245  0.587419062507988  1.0000
  H   H79       1.0  0.47642404178673126  0.06381282298641618  0.9125809373964164  1.0000
  H   H80       1.0  0.9764240420658968  0.563812822424245  0.9125809373363929  1.0000
  H   H81       1.0  0.5791499173605039  0.3725181690730694  0.6756851512350978  1.0000
  H   H82       1.0  0.07914991773687996  0.8725181685108983  0.6756851512973107  1.0000
  H   H83       1.0  0.4208500826109822  0.3725181690730694  0.8243148486092832  1.0000
  H   H84       1.0  0.9208500824824836  0.8725181685108983  0.824314849157053  1.0000
  H   H85       1.0  0.4208500826707091  0.6274818315431495  0.3243148488237383  1.0000
  H   H86       1.0  0.9208500822943332  0.1274818312350401  0.32431484876152544  1.0000
  H   H87       1.0  0.5791499171723535  0.6274818315431495  0.17568515083957026  1.0000
  H   H88       1.0  0.07914991754872956  0.1274818312350401  0.1756851509017831  1.0000
  H   H89       1.0  0.5846405033651914  0.5888980869185573  0.6745219724270203  1.0000
  H   H90       1.0  0.08464050374156734  0.08889808661044785  0.6745219724892331  1.0000
  H   H91       1.0  0.41535949660629484  0.5888980869185573  0.8254780274173609  1.0000
  H   H92       1.0  0.9153594962299189  0.08889808661044785  0.8254780273551479  1.0000
  H   H93       1.0  0.4153594966660217  0.411101912827381  0.3254780276318159  1.0000
  H   H94       1.0  0.9153594962896457  0.9111019131354905  0.3254780275696031  1.0000
  H   H95       1.0  0.5846405034249182  0.411101912827381  0.17452197264147534  1.0000
  H   H96       1.0  0.08464050380129419  0.9111019131354905  0.17452197270368813  1.0000
  H   H97       1.0  0.4999999999857431  0.7009943433487903  0.7499999999221905  1.0000
  H   H98       1.0  2.649085395489692e-10  0.2009943430406808  0.749999999862167  1.0000
  H   H99       1.0  0.50000000004547  0.29900565639714805  0.2500000001366456  1.0000
  H   H100      1.0  3.2463542964933367e-10  0.7990056567052575  0.25000000007662204  1.0000
  B   B1        1.0  0.7807631513329738  0.383852796598369  0.6932329648758269  1.0000
  B   B2        1.0  0.28076315105380834  0.8838527969064786  0.6932329649358504  1.0000
  B   B3        1.0  0.21923684863851237  0.383852796598369  0.8067670349685541  1.0000
  B   B4        1.0  0.7192368489176779  0.8838527969064786  0.8067670349085304  1.0000
  B   B5        1.0  0.21923684869823923  0.6161472031475693  0.30676703518300924  1.0000
  B   B6        1.0  0.7192368489774047  0.11614720283945984  0.30676703512298564  1.0000
  B   B7        1.0  0.7807631513927007  0.6161472031475693  0.193232965090282  1.0000
  B   B8        1.0  0.28076315111353517  0.11614720283945984  0.19323296515030555  1.0000
  B   B9        1.0  0.7655745908431515  0.4890796646360365  0.8132072155423586  1.0000
  B   B10       1.0  0.26557459056398597  0.989079664944146  0.8132072156023821  1.0000
  B   B11       1.0  0.2344254091283347  0.4890796646360365  0.6867927843020223  1.0000
  B   B12       1.0  0.7344254089998361  0.989079664944146  0.6867927848497922  1.0000
  B   B13       1.0  0.2344254091880616  0.5109203351099018  0.18679278451647752  1.0000
  B   B14       1.0  0.7344254094672271  0.01092033480179231  0.18679278445645395  1.0000
  B   B15       1.0  0.7655745906550011  0.5109203351099018  0.31320721514683103  1.0000
  B   B16       1.0  0.2655745910313771  0.01092033480179231  0.3132072152090439  1.0000
  B   B17       1.0  0.7538605782396245  0.28154077761696805  0.8102654820850278  1.0000
  B   B18       1.0  0.2538605786160005  0.7815407779250775  0.8102654821472406  1.0000
  B   B19       1.0  0.24613942173186168  0.28154077761696805  0.6897345177593532  1.0000
  B   B20       1.0  0.7461394213554857  0.7815407779250775  0.6897345176971403  1.0000
  B   B21       1.0  0.24613942179158854  0.7184592221289703  0.18973451797380833  1.0000
  B   B22       1.0  0.7461394214152126  0.21845922182086083  0.18973451791159548  1.0000
  B   B23       1.0  0.7538605782993514  0.7184592221289703  0.31026548229948286  1.0000
  B   B24       1.0  0.2538605786757273  0.21845922182086083  0.3102654823616957  1.0000
  B   B25       1.0  0.9115477832684759  0.3887606978612862  0.6370224259888322  1.0000
  B   B26       1.0  0.41154778298931033  0.8887606981693956  0.6370224260488556  1.0000
  B   B27       1.0  0.08845221695088766  0.3887606978612862  0.8629775744655316  1.0000
  B   B28       1.0  0.5884522172300531  0.8887606981693956  0.862977574405508  1.0000
  B   B29       1.0  0.08845221676273728  0.6112393018846521  0.362977574070004  1.0000
  B   B30       1.0  0.5884522170419028  0.11123930157654263  0.3629775740099805  1.0000
  B   B31       1.0  0.9115477830803256  0.6112393018846521  0.13702242559330452  1.0000
  B   B32       1.0  0.41154778280116  0.11123930157654263  0.13702242565332806  1.0000
  B   B33       1.0  0.7506489748606081  0.39301692170469954  0.5441532472726642  1.0000
  B   B34       1.0  0.25064897458144253  0.893016922012809  0.5441532473326878  1.0000
  B   B35       1.0  0.24935102535875536  0.39301692170469954  0.9558467531816993  1.0000
  B   B36       1.0  0.7493510256379209  0.893016922012809  0.9558467531216759  1.0000
  B   B37       1.0  0.24935102517060498  0.6069830780412387  0.4558467527861718  1.0000
  B   B38       1.0  0.7493510254497705  0.10698307773312932  0.4558467527261483  1.0000
  B   B39       1.0  0.7506489746724578  0.6069830780412387  0.0441532468771367  1.0000
  B   B40       1.0  0.2506489743932922  0.10698307773312932  0.04415324693716023  1.0000
  C   C1        1.0  0.4942617744630309  0.6872503544532054  0.513557106209826  1.0000
  C   C2        1.0  0.9942617747421965  0.18725035414509592  0.5135571061498024  1.0000
  C   C3        1.0  0.5057382255084553  0.6872503544532054  0.9864428936345547  1.0000
  C   C4        1.0  0.005738225229289794  0.18725035414509592  0.9864428936945785  1.0000
  C   C5        1.0  0.5057382255681823  0.31274964529273297  0.4864428938490101  1.0000
  C   C6        1.0  0.005738225041139463  0.8127496456008425  0.48644289329905094  1.0000
  C   C7        1.0  0.49426177452275777  0.31274964529273297  0.013557106424281115  1.0000
  C   C8        1.0  0.9942617748019232  0.8127496456008425  0.01355710636425758  1.0000
  C   C9        1.0  0.5728110129072503  0.6380098273196  0.5048620688776765  1.0000
  C   C10       1.0  0.07281101328362617  0.13800982701149053  0.5048620689398893  1.0000
  C   C11       1.0  0.4271889870642359  0.6380098273196  0.9951379309667044  1.0000
  C   C12       1.0  0.92718898668786  0.13800982701149053  0.9951379309044915  1.0000
  C   C13       1.0  0.4271889871239628  0.36199017242633835  0.4951379311811596  1.0000
  C   C14       1.0  0.9271889867475869  0.8619901727344478  0.4951379311189467  1.0000
  C   C15       1.0  0.5728110129669771  0.36199017242633835  0.004862069092131623  1.0000
  C   C16       1.0  0.07281101334335309  0.8619901727344478  0.004862069154344447  1.0000
  C   C17       1.0  0.6184121021880992  0.6975136065227487  0.46044517341778124  1.0000
  C   C18       1.0  0.11841210190893353  0.19751360621463931  0.4604451734778047  1.0000
  C   C19       1.0  0.38158789765496365  0.6975136065227487  0.0395548262455273  1.0000
  C   C20       1.0  0.8815878979341292  0.19751360621463931  0.039554826185503766  1.0000
  C   C21       1.0  0.3815878975952368  0.30248639322318954  0.5395548260310721  1.0000
  C   C22       1.0  0.8815878981222796  0.802486393531299  0.5395548265810314  1.0000
  C   C23       1.0  0.6184121023762494  0.30248639322318954  0.9604451738133089  1.0000
  C   C24       1.0  0.1184121020970839  0.802486393531299  0.9604451738733324  1.0000
  C   C25       1.0  0.5842753504583653  0.805133440714665  0.4257482076973665  1.0000
  C   C26       1.0  0.08427535083474122  0.30513344127683606  0.4257482077595793  1.0000
  C   C27       1.0  0.4157246496325747  0.805133440714665  0.07425179257592475  1.0000
  C   C28       1.0  0.9157246492561987  0.30513344127683606  0.07425179251371192  1.0000
  C   C29       1.0  0.41572464957284777  0.19486655903127337  0.5742517923614696  1.0000
  C   C30       1.0  0.9157246491964719  0.6948665593393828  0.5742517922992568  1.0000
  C   C31       1.0  0.5842753503986384  0.19486655903127337  0.9257482074829113  1.0000
  C   C32       1.0  0.08427535077501438  0.6948665593393828  0.9257482075451242  1.0000
  C   C33       1.0  0.5060096239531952  0.8518513908057402  0.43661494626779074  1.0000
  C   C34       1.0  0.006009624329571106  0.3518513913679113  0.4366149463300036  1.0000
  C   C35       1.0  0.4939903758898676  0.8518513908057402  0.06338505339551782  1.0000
  C   C36       1.0  0.9939903755134918  0.3518513913679113  0.06338505333330499  1.0000
  C   C37       1.0  0.49399037607801793  0.14814860894019813  0.5633850537910453  1.0000
  C   C38       1.0  0.9939903757016421  0.6481486092483076  0.5633850537288326  1.0000
  C   C39       1.0  0.5060096241413455  0.14814860894019813  0.9366149466633182  1.0000
  C   C40       1.0  0.006009624517721438  0.6481486092483076  0.9366149467255311  1.0000
  C   C41       1.0  0.5437379666318752  0.42282481777850867  0.7089436732305289  1.0000
  C   C42       1.0  0.043737966352709684  0.9228248180866181  0.7089436732905524  1.0000
  C   C43       1.0  0.456262033339611  0.42282481777850867  0.7910563266138521  1.0000
  C   C44       1.0  0.9562620336187765  0.9228248180866181  0.7910563265538285  1.0000
  C   C45       1.0  0.45626203339933785  0.5771751819674298  0.2910563268283072  1.0000
  C   C46       1.0  0.9562620336785033  0.07717518165932025  0.29105632676828364  1.0000
  C   C47       1.0  0.5437379666916021  0.5771751819674298  0.20894367344498402  1.0000
  C   C48       1.0  0.04373796641243658  0.07717518165932025  0.20894367350500756  1.0000
  C   C49       1.0  0.5462903760982614  0.5442511705264074  0.7075678899713633  1.0000
  C   C50       1.0  0.046290376474637324  0.0442511702182979  0.7075678900335763  1.0000
  C   C51       1.0  0.4537096238732248  0.5442511705264074  0.7924321098730175  1.0000
  C   C52       1.0  0.953709623496849  0.0442511702182979  0.7924321098108048  1.0000
  C   C53       1.0  0.45370962393295167  0.45574883008981154  0.29243211008747266  1.0000
  C   C54       1.0  0.9537096235565757  0.9557488295276404  0.2924321100252598  1.0000
  C   C55       1.0  0.5462903761579884  0.45574883008981154  0.20756789018581856  1.0000
  C   C56       1.0  0.04629037628648695  0.9557488295276404  0.2075678896380487  1.0000
  C   C57       1.0  0.4999999999857431  0.6063695067276524  0.7499999999221905  1.0000
  C   C58       1.0  2.649085395489692e-10  0.10636950641954293  0.749999999862167  1.0000
  C   C59       1.0  0.50000000004547  0.3936304930182859  0.2500000001366456  1.0000
  C   C60       1.0  3.2463542964933367e-10  0.8936304933263954  0.25000000007662204  1.0000
  N   N1        1.0  0.4635148680862587  0.7916757523762035  0.47941228801477026  1.0000
  N   N2        1.0  0.9635148677098827  0.291675752068094  0.47941228795255747  1.0000
  N   N3        1.0  0.536485131756804  0.7916757523762035  0.02058771164853823  1.0000
  N   N4        1.0  0.03648513213317999  0.291675752068094  0.020587711710751057  1.0000
  N   N5        1.0  0.5364851319449545  0.20832424824001544  0.5205877120440658  1.0000
  N   N6        1.0  0.036485132321330375  0.7083242476778443  0.5205877121062786  1.0000
  N   N7        1.0  0.46351486802653175  0.20832424824001544  0.9794122878003151  1.0000
  N   N8        1.0  0.9635148678980331  0.7083242476778443  0.979412288348085  1.0000
  N   N9        1.0  0.4999999999857431  0.36177033084647675  0.7499999999221905  1.0000
  N   N10       1.0  2.649085395489692e-10  0.8617703311545862  0.749999999862167  1.0000
  N   N11       1.0  0.50000000004547  0.6382296688994615  0.2500000001366456  1.0000
  N   N12       1.0  3.2463542964933367e-10  0.1382296685913521  0.25000000007662204  1.0000
  O   O1        1.0  0.7691548787546915  0.49033895977961  0.7362961064502775  1.0000
  O   O2        1.0  0.26915487847552605  0.9903389600877195  0.7362961065103012  1.0000
  O   O3        1.0  0.23084512121679476  0.49033895977961  0.7637038933941034  1.0000
  O   O4        1.0  0.7308451217438375  0.9903389600877195  0.7637038939440627  1.0000
  O   O5        1.0  0.2308451212765216  0.5096610399663283  0.2637038936085585  1.0000
  O   O6        1.0  0.7308451215556871  0.009661040528499441  0.26370389354853496  1.0000
  O   O7        1.0  0.7691548788144184  0.5096610399663283  0.23629610666473266  1.0000
  O   O8        1.0  0.2691548782873756  0.009661040528499441  0.23629610611477353  1.0000
  O   O9        1.0  0.7618242586703454  0.38591484987188523  0.8524739236470912  1.0000
  O   O10       1.0  0.26182425839117995  0.8859148501799947  0.8524739237071147  1.0000
  O   O11       1.0  0.23817574130114066  0.38591484987188523  0.6475260761972896  1.0000
  O   O12       1.0  0.7381757415803063  0.8859148501799947  0.6475260761372662  1.0000
  O   O13       1.0  0.23817574136086758  0.614085149874053  0.14752607641174487  1.0000
  O   O14       1.0  0.7381757416400331  0.11408515043622423  0.14752607635172132  1.0000
  O   O15       1.0  0.7618242587300723  0.614085149874053  0.3524739238615463  1.0000
  O   O16       1.0  0.26182425845090684  0.11408515043622423  0.3524739239215699  1.0000
  O   O17       1.0  0.7588736249566066  0.28003651241177485  0.7332079870167505  1.0000
  O   O18       1.0  0.25887362533298247  0.7800365127198844  0.7332079870789632  1.0000
  O   O19       1.0  0.24112637526275682  0.28003651241177485  0.7667920134376133  1.0000
  O   O20       1.0  0.7411263748863809  0.7800365127198844  0.7667920133754004  1.0000
  O   O21       1.0  0.2411263750746065  0.7199634873341634  0.2667920130420857  1.0000
  O   O22       1.0  0.7411263746982305  0.21996348702605398  0.2667920129798729  1.0000
  O   O23       1.0  0.7588736247684562  0.7199634873341634  0.23320798662122283  1.0000
  O   O24       1.0  0.2588736251448322  0.21996348702605398  0.23320798668343568  1.0000
  O   O25       1.0  0.8813383529066743  0.3782555234527496  0.7013158386733687  1.0000
  O   O26       1.0  0.3813383526275087  0.878255523760859  0.7013158387333922  1.0000
  O   O27       1.0  0.11866164706481205  0.3782555234527496  0.7986841611710124  1.0000
  O   O28       1.0  0.6186616473439777  0.878255523760859  0.7986841611109887  1.0000
  O   O29       1.0  0.11866164712453889  0.6217444762931887  0.2986841613854674  1.0000
  O   O30       1.0  0.6186616474037043  0.12174447685535987  0.2986841613254439  1.0000
  O   O31       1.0  0.8813383529664011  0.6217444762931887  0.20131583888782378  1.0000
  O   O32       1.0  0.3813383524393584  0.12174447685535987  0.20131583833786465  1.0000
  O   O33       1.0  0.8471842839085053  0.3941225218149415  0.5571311076398998  1.0000
  O   O34       1.0  0.34718428428488135  0.894122522123051  0.5571311077021127  1.0000
  O   O35       1.0  0.1528157160629808  0.3941225218149415  0.9428688922044811  1.0000
  O   O36       1.0  0.6528157156866049  0.894122522123051  0.9428688921422683  1.0000
  O   O37       1.0  0.15281571612270767  0.6058774779309968  0.44286889241893623  1.0000
  O   O38       1.0  0.6528157157463318  0.10587747762288735  0.44286889235672344  1.0000
  O   O39       1.0  0.8471842839682323  0.6058774779309968  0.057131107854354955  1.0000
  O   O40       1.0  0.3471842843446082  0.10587747762288735  0.05713110791656778  1.0000
  O   O41       1.0  0.719631425290575  0.3883206831246583  0.6079296467875194  1.0000
  O   O42       1.0  0.21963142501140948  0.8883206825624872  0.6079296468475429  1.0000
  O   O43       1.0  0.2803685746809112  0.3883206831246583  0.8920703530568616  1.0000
  O   O44       1.0  0.7803685749600767  0.8883206825624872  0.8920703529968379  1.0000
  O   O45       1.0  0.28036857449276087  0.6116793174915607  0.39207035266133394  1.0000
  O   O46       1.0  0.7803685750198036  0.11167931718345116  0.39207035321129313  1.0000
  O   O47       1.0  0.7196314253503018  0.6116793174915607  0.10792964700197454  1.0000
  O   O48       1.0  0.21963142507113634  0.11167931718345116  0.10792964706199806  1.0000
  O   O49       1.0  0.7662779238096786  0.5909154495432114  0.8544161268316989  1.0000
  O   O50       1.0  0.2662779235305131  0.09091545010538257  0.8544161268917224  1.0000
  O   O51       1.0  0.23372207616180762  0.5909154495432114  0.645583873012682  1.0000
  O   O52       1.0  0.7337220764409731  0.09091545010538257  0.6455838729526585  1.0000
  O   O53       1.0  0.23372207622153449  0.4090845502027269  0.14558387322713714  1.0000
  O   O54       1.0  0.7337220765007001  0.9090845505108364  0.14558387316711363  1.0000
  O   O55       1.0  0.7662779238694055  0.4090845502027269  0.35441612704615405  1.0000
  O   O56       1.0  0.26627792359023994  0.9090845505108364  0.35441612710617754  1.0000
  O   O57       1.0  0.7409829587653923  0.1829997009677397  0.847757457713537  1.0000
  O   O58       1.0  0.24098295823834973  0.6829997012758492  0.847757457163578  1.0000
  O   O59       1.0  0.25901704145397103  0.1829997009677397  0.6522425427408265  1.0000
  O   O60       1.0  0.7590170417331364  0.6829997012758492  0.652242542680803  1.0000
  O   O61       1.0  0.25901704126582065  0.8170002987781987  0.15224254234529896  1.0000
  O   O62       1.0  0.7590170415449862  0.31700029847008915  0.15224254228527542  1.0000
  O   O63       1.0  0.7409829585772421  0.8170002987781987  0.3477574573180095  1.0000
  O   O64       1.0  0.24098295829807656  0.31700029847008915  0.3477574573780331  1.0000
  O   O65       1.0  0.003963556651279039  0.3944333303437624  0.6464161306504188  1.0000
  O   O66       1.0  0.5039635569304446  0.8944333306518719  0.6464161305903954  1.0000
  O   O67       1.0  0.9960364433202072  0.3944333303437624  0.8535838691939621  1.0000
  O   O68       1.0  0.4960364430410416  0.8944333306518719  0.8535838692539857  1.0000
  O   O69       1.0  0.9960364433799339  0.605566669402176  0.35358386940841724  1.0000
  O   O70       1.0  0.4960364431007685  0.10556666996434709  0.3535838694684408  1.0000
  O   O71       1.0  0.003963556711005937  0.605566669402176  0.14641613086487396  1.0000
  O   O72       1.0  0.5039635569901715  0.10556666996434709  0.14641613080485041  1.0000
  O   O73       1.0  0.6873207337486389  0.3970500064750955  0.4663215069383737  1.0000
  O   O74       1.0  0.18732073412501477  0.8970500067832049  0.4663215070005865  1.0000
  O   O75       1.0  0.31267926609442387  0.3970500064750955  0.033678492724934846  1.0000
  O   O76       1.0  0.8126792659659252  0.8970500067832049  0.033678493272704696  1.0000
  O   O77       1.0  0.3126792662825742  0.6029499932708429  0.5336784931204623  1.0000
  O   O78       1.0  0.8126792659061983  0.10294999383301397  0.5336784930582497  1.0000
  O   O79       1.0  0.6873207336889119  0.6029499932708429  0.9663215067239185  1.0000
  O   O80       1.0  0.18732073406528793  0.10294999383301397  0.9663215067861314  1.0000
