data_image0
_chemical_formula_structural       H32C64N32S8Cl24
_chemical_formula_sum              "H32 C64 N32 S8 Cl24"
_cell_length_a       21.23172552842542
_cell_length_b       4.728874348855759
_cell_length_c       24.046196511104597
_cell_angle_alpha    90.0
_cell_angle_beta     88.37337080943585
_cell_angle_gamma    90.0

_space_group_name_H-M_alt    "P 1"
_space_group_IT_number       1

loop_
  _space_group_symop_operation_xyz
  'x, y, z'

loop_
  _atom_site_type_symbol
  _atom_site_label
  _atom_site_symmetry_multiplicity
  _atom_site_fract_x
  _atom_site_fract_y
  _atom_site_fract_z
  _atom_site_occupancy
  H   H1        1.0  0.20340529092005435  0.022737743079601483  0.3296490919965266  1.0000
  H   H2        1.0  0.796594709310327  0.022737743079601483  0.1703509078854707  1.0000
  H   H3        1.0  0.7034052908803764  0.522737742143252  0.32964909178736573  1.0000
  H   H4        1.0  0.296594709350005  0.522737742143252  0.17035090809463158  1.0000
  H   H5        1.0  0.7965947091508764  0.9772622571623675  0.6703509082357797  1.0000
  H   H6        1.0  0.20340529071728805  0.9772622571623675  0.829649091933816  1.0000
  H   H7        1.0  0.2965947091472387  0.47726225809871714  0.670350908031921  1.0000
  H   H8        1.0  0.7034052907209258  0.47726225809871714  0.8296490921376748  1.0000
  H   H9        1.0  0.21719243396274543  0.29792553070074673  0.2403787517132709  1.0000
  H   H10       1.0  0.7828075662676359  0.29792553070074673  0.25962124816872634  1.0000
  H   H11       1.0  0.7171924339663832  0.7979255318790653  0.24037875191712957  1.0000
  H   H12       1.0  0.28280756630731396  0.7979255318790653  0.25962124837788725  1.0000
  H   H13       1.0  0.7828075660648697  0.7020744674265542  0.7596212481060158  1.0000
  H   H14       1.0  0.21719243375997913  0.7020744674265542  0.7403787516505604  1.0000
  H   H15       1.0  0.2828075661045476  0.20207446836290371  0.7596212483151769  1.0000
  H   H16       1.0  0.7171924337636169  0.20207446836290371  0.7403787518544191  1.0000
  H   H17       1.0  0.05357900939596987  0.8580186870437317  0.18058257602984001  1.0000
  H   H18       1.0  0.9464209908344116  0.8580186870437317  0.31941742385215727  1.0000
  H   H19       1.0  0.5535790093996077  0.3580186879800813  0.1805825762336987  1.0000
  H   H20       1.0  0.44642099087408954  0.3580186879800813  0.3194174240613181  1.0000
  H   H21       1.0  0.9464209906316453  0.14198131319823729  0.8194174237894467  1.0000
  H   H22       1.0  0.053579009193203526  0.14198131319823729  0.6805825759671293  1.0000
  H   H23       1.0  0.4464209906713232  0.6419813122618877  0.8194174239986076  1.0000
  H   H24       1.0  0.5535790091968413  0.6419813122618877  0.6805825761709882  1.0000
  H   H25       1.0  0.14090932413367516  0.2090688897748415  0.16395251792797308  1.0000
  H   H26       1.0  0.8590906760967062  0.2090688897748415  0.3360474819540242  1.0000
  H   H27       1.0  0.6409093241373129  0.7090688909531601  0.1639525181318318  1.0000
  H   H28       1.0  0.35909067609306844  0.7090688909531601  0.33604748175016547  1.0000
  H   H29       1.0  0.8590906758939397  0.7909311104671275  0.8360474818913136  1.0000
  H   H30       1.0  0.14090932393090885  0.7909311104671275  0.6639525178652625  1.0000
  H   H31       1.0  0.3590906759336178  0.29093110928880894  0.8360474821004744  1.0000
  H   H32       1.0  0.6409093239345466  0.29093110928880894  0.6639525180691213  1.0000
  C   C1        1.0  0.11372663454220759  0.5690391648175465  0.5134609965743888  1.0000
  C   C2        1.0  0.8862733653259569  0.5690391648175465  0.986539003595207  1.0000
  C   C3        1.0  0.6137266345458453  0.0690391636392279  0.5134609967782475  1.0000
  C   C4        1.0  0.3862733653223191  0.0690391636392279  0.9865390033913483  1.0000
  C   C5        1.0  0.8862733654854074  0.43096083542442254  0.48653900324489796  1.0000
  C   C6        1.0  0.11372663474497392  0.43096083542442254  0.013460996637099307  1.0000
  C   C7        1.0  0.38627336552508545  0.9309608366027411  0.4865390034540588  1.0000
  C   C8        1.0  0.613726634705296  0.9309608366027411  0.013460996427938453  1.0000
  C   C9        1.0  0.10086273186590929  0.8843990877050826  0.4459548379736478  1.0000
  C   C10       1.0  0.8991372679385999  0.8843990877050826  0.05404516237135903  1.0000
  C   C11       1.0  0.6008627318262313  0.3843990865267641  0.4459548377644869  1.0000
  C   C12       1.0  0.3991372679349621  0.3843990865267641  0.05404516216750034  1.0000
  C   C13       1.0  0.8991372682050215  0.11560091253688637  0.5540451622586584  1.0000
  C   C14       1.0  0.1008627321323309  0.11560091253688637  0.9459548378609473  1.0000
  C   C15       1.0  0.3991372682013838  0.615600913715205  0.5540451620547998  1.0000
  C   C16       1.0  0.600862732092653  0.615600913715205  0.9459548376517866  1.0000
  C   C17       1.0  0.18834881844496593  0.6243771587448582  0.44736737592202325  1.0000
  C   C18       1.0  0.8116511818287312  0.6243771587448582  0.05263262437299354  1.0000
  C   C19       1.0  0.688348818405288  0.12437715968120774  0.44736737571286234  1.0000
  C   C20       1.0  0.31165118182509344  0.12437715968120774  0.052632624169134855  1.0000
  C   C21       1.0  0.811651181625965  0.37562284149711084  0.552632624310283  1.0000
  C   C22       1.0  0.18834881824219962  0.37562284149711084  0.9473673758593127  1.0000
  C   C23       1.0  0.31165118162232713  0.8756228405607612  0.5526326241064243  1.0000
  C   C24       1.0  0.6883488182025217  0.8756228405607612  0.9473673756501519  1.0000
  C   C25       1.0  0.17252386206605308  0.9897333793892185  0.29463758723016903  1.0000
  C   C26       1.0  0.8274761376951403  0.9897333793892185  0.2053624127018183  1.0000
  C   C27       1.0  0.6725238620696908  0.48973338032556796  0.29463758743402774  1.0000
  C   C28       1.0  0.32747613769150263  0.48973338032556796  0.2053624124979596  1.0000
  C   C29       1.0  0.8274761379615619  0.01026662085275061  0.7053624125891176  1.0000
  C   C30       1.0  0.17252386233247471  0.01026662085275061  0.7946375871174685  1.0000
  C   C31       1.0  0.3274761380012399  0.5102666199164011  0.7053624127982785  1.0000
  C   C32       1.0  0.6725238623361125  0.5102666199164011  0.7946375873213272  1.0000
  C   C33       1.0  0.17976516721535396  0.14199114640516344  0.2451714073244411  1.0000
  C   C34       1.0  0.8202348325458395  0.14199114640516344  0.25482859260754626  1.0000
  C   C35       1.0  0.6797651672189917  0.6419911454688139  0.24517140752829977  1.0000
  C   C36       1.0  0.3202348325855175  0.6419911454688139  0.2548285928167071  1.0000
  C   C37       1.0  0.8202348328122612  0.8580088538368057  0.7548285924948457  1.0000
  C   C38       1.0  0.17976516701258766  0.8580088538368057  0.7451714072617306  1.0000
  C   C39       1.0  0.3202348328519391  0.35800885477315514  0.7548285927040065  1.0000
  C   C40       1.0  0.6797651674854134  0.35800885477315514  0.7451714074155993  1.0000
  C   C41       1.0  0.0891680984593463  0.8959756460911702  0.21146758571984264  1.0000
  C   C42       1.0  0.9108319013018473  0.8959756460911702  0.28853241421214465  1.0000
  C   C43       1.0  0.5891680984629841  0.3959756470275197  0.2114675859237013  1.0000
  C   C44       1.0  0.41083190129820946  0.3959756470275197  0.288532414008286  1.0000
  C   C45       1.0  0.9108319015682688  0.1040243541507989  0.7885324140994442  1.0000
  C   C46       1.0  0.08916809876908362  0.1040243541507989  0.7114675860201616  1.0000
  C   C47       1.0  0.41083190160794675  0.6040243532144494  0.788532414308605  1.0000
  C   C48       1.0  0.5891680987294057  0.6040243532144494  0.7114675858110008  1.0000
  C   C49       1.0  0.13740840861047562  0.09193487454476257  0.20293999577288832  1.0000
  C   C50       1.0  0.8625915916199057  0.09193487454476257  0.2970600041091089  1.0000
  C   C51       1.0  0.6374084085707977  0.5919348757230812  0.20293999556372747  1.0000
  C   C52       1.0  0.36259159165958377  0.5919348757230812  0.2970600043182698  1.0000
  C   C53       1.0  0.862591591460455  0.9080651256972065  0.7970600044594179  1.0000
  C   C54       1.0  0.13740840840770932  0.9080651256972065  0.7029399957101778  1.0000
  C   C55       1.0  0.3625915914568174  0.4080651245188879  0.7970600042555593  1.0000
  C   C56       1.0  0.637408408411347  0.4080651245188879  0.7029399959140366  1.0000
  C   C57       1.0  0.08684211821238752  0.7531796887057951  0.2624163788458279  1.0000
  C   C58       1.0  0.9131578815921216  0.7531796887057951  0.23758362149917894  1.0000
  C   C59       1.0  0.5868421181727096  0.2531796896421447  0.26241637863666706  1.0000
  C   C60       1.0  0.4131578815884839  0.2531796896421447  0.23758362129532032  1.0000
  C   C61       1.0  0.9131578818585433  0.24682031153617393  0.7375836213864784  1.0000
  C   C62       1.0  0.08684211800962119  0.24682031153617393  0.7624163787831173  1.0000
  C   C63       1.0  0.41315788185490554  0.7468203105998243  0.7375836211826198  1.0000
  C   C64       1.0  0.5868421179699432  0.7468203105998243  0.7624163785739565  1.0000
  N   N1        1.0  0.0761191204459755  0.763218242597904  0.49177135720651377  1.0000
  N   N2        1.0  0.9238808793585336  0.763218242597904  0.00822864313849309  1.0000
  N   N3        1.0  0.5761191204062976  0.26321824141958544  0.4917713569973529  1.0000
  N   N4        1.0  0.4238808793548959  0.26321824141958544  0.008228642934634397  1.0000
  N   N5        1.0  0.9238808796249552  0.23678175764406498  0.5082286430257925  1.0000
  N   N6        1.0  0.07611912071239711  0.23678175764406498  0.9917713570938133  1.0000
  N   N7        1.0  0.42388087962131754  0.7367817588223836  0.5082286428219338  1.0000
  N   N8        1.0  0.5761191206727192  0.7367817588223836  0.9917713568846525  1.0000
  N   N9        1.0  0.15763747886623797  0.833218550404792  0.42280109530100113  1.0000
  N   N10       1.0  0.8423625208949557  0.833218550404792  0.07719890463098618  1.0000
  N   N11       1.0  0.6576374793390636  0.33321854922647337  0.42280109545486977  1.0000
  N   N12       1.0  0.3423625209346335  0.33321854922647337  0.07719890484014703  1.0000
  N   N13       1.0  0.8423625206921892  0.16678144983717705  0.5771989045682756  1.0000
  N   N14       1.0  0.15763747913265957  0.16678144983717705  0.9228010951883007  1.0000
  N   N15       1.0  0.3423625207318672  0.6667814510154956  0.5771989047774365  1.0000
  N   N16       1.0  0.6576374791362973  0.6667814510154956  0.9228010953921594  1.0000
  N   N17       1.0  0.16939691989134717  0.48167537176181324  0.4928652914653604  1.0000
  N   N18       1.0  0.8306030798698463  0.48167537176181324  0.007134708466626972  1.0000
  N   N19       1.0  0.669396919894985  0.9816753708254635  0.49286529166921905  1.0000
  N   N20       1.0  0.3306030798662085  0.9816753708254635  0.007134708262768299  1.0000
  N   N21       1.0  0.8306030801362679  0.5183246284801558  0.5071347083539265  1.0000
  N   N22       1.0  0.16939692020108452  0.5183246284801558  0.9928652917656793  1.0000
  N   N23       1.0  0.33060308017594586  0.018324629416505388  0.5071347085630872  1.0000
  N   N24       1.0  0.6693969201614065  0.018324629416505388  0.9928652915565184  1.0000
  N   N25       1.0  0.12730381664008894  0.7953523825199701  0.3030019803722318  1.0000
  N   N26       1.0  0.8726961835902924  0.7953523825199701  0.19699801950976548  1.0000
  N   N27       1.0  0.6273038166437267  0.29535238345631964  0.30300198057609046  1.0000
  N   N28       1.0  0.3726961835866547  0.29535238345631964  0.1969980193059068  1.0000
  N   N29       1.0  0.8726961833875262  0.20464761772199894  0.6969980194470551  1.0000
  N   N30       1.0  0.12730381648063832  0.20464761772199894  0.8030019807225409  1.0000
  N   N31       1.0  0.3726961833838884  0.7046476167856494  0.6969980192431963  1.0000
  N   N32       1.0  0.6273038164409604  0.7046476167856494  0.80300198051338  1.0000
  S   S1        1.0  0.030336260189311324  0.48921152040332305  0.28174936107651016  1.0000
  S   S2        1.0  0.9696637395718821  0.48921152040332305  0.2182506388554772  1.0000
  S   S3        1.0  0.5303362601496333  0.9892115194669734  0.28174936086734925  1.0000
  S   S4        1.0  0.46966373961156016  0.9892115194669734  0.21825063906463807  1.0000
  S   S5        1.0  0.9696637398383038  0.510788479838646  0.7182506387427765  1.0000
  S   S6        1.0  0.030336260455732924  0.510788479838646  0.7817493609638095  1.0000
  S   S7        1.0  0.4696637398779817  0.010788478660327403  0.7182506389519374  1.0000
  S   S8        1.0  0.5303362604593707  0.010788478660327403  0.7817493611676682  1.0000
  Cl  Cl1       1.0  0.055008535140354926  0.12820481900659872  0.41346206517230066  1.0000
  Cl  Cl2       1.0  0.9449914650900265  0.12820481900659872  0.0865379347096966  1.0000
  Cl  Cl3       1.0  0.5550085351439927  0.6282048201849173  0.41346206537615937  1.0000
  Cl  Cl4       1.0  0.44499146508638876  0.6282048201849173  0.08653793450583791  1.0000
  Cl  Cl5       1.0  0.9449914648872602  0.8717951791207021  0.5865379346469861  1.0000
  Cl  Cl6       1.0  0.055008534980904314  0.8717951791207021  0.9134620655226097  1.0000
  Cl  Cl7       1.0  0.4449914649269381  0.3717951800570517  0.586537934856147  1.0000
  Cl  Cl8       1.0  0.5550085349412264  0.3717951800570517  0.9134620653134488  1.0000
  Cl  Cl9       1.0  0.08756922856937993  0.4135798343792398  0.5745543379976561  1.0000
  Cl  Cl10      1.0  0.9124307717246568  0.4135798343792398  0.9254456617089302  1.0000
  Cl  Cl11      1.0  0.5875692285730176  0.9135798355575583  0.5745543382015147  1.0000
  Cl  Cl12      1.0  0.4124307717643347  0.9135798355575583  0.9254456619180911  1.0000
  Cl  Cl13      1.0  0.9124307714582351  0.5864201658627293  0.4254456618216307  1.0000
  Cl  Cl14      1.0  0.08756922830295832  0.5864201658627293  0.07455433811035662  1.0000
  Cl  Cl15      1.0  0.4124307714545974  0.08642016468441067  0.42544566161777203  1.0000
  Cl  Cl16      1.0  0.5875692283065961  0.08642016468441067  0.0745543383142153  1.0000
  Cl  Cl17      1.0  0.25922059148277965  0.526356628740258  0.4172698057014771  1.0000
  Cl  Cl18      1.0  0.7407794083217296  0.526356628740258  0.08273019464352978  1.0000
  Cl  Cl19      1.0  0.7592205914431017  0.026356627561939416  0.4172698054923163  1.0000
  Cl  Cl20      1.0  0.2407794083180918  0.026356627561939416  0.08273019443967108  1.0000
  Cl  Cl21      1.0  0.7407794085881512  0.473643371501711  0.5827301945308292  1.0000
  Cl  Cl22      1.0  0.25922059128001335  0.473643371501711  0.9172698056387666  1.0000
  Cl  Cl23      1.0  0.2407794085845134  0.9736433726800297  0.5827301943269705  1.0000
  Cl  Cl24      1.0  0.7592205912403353  0.9736433726800297  0.9172698054296057  1.0000
