data_image0
_chemical_formula_structural       H10C22N4S2
_chemical_formula_sum              "H10 C22 N4 S2"
_cell_length_a       7.592453263377017
_cell_length_b       7.720489999079038
_cell_length_c       7.9374424516709094
_cell_angle_alpha    76.90138350018083
_cell_angle_beta     73.0782144459687
_cell_angle_gamma    81.0699154397186

_space_group_name_H-M_alt    "P 1"
_space_group_IT_number       1

loop_
  _space_group_symop_operation_xyz
  'x, y, z'

loop_
  _atom_site_type_symbol
  _atom_site_label
  _atom_site_symmetry_multiplicity
  _atom_site_fract_x
  _atom_site_fract_y
  _atom_site_fract_z
  _atom_site_occupancy
  H   H1        1.0  0.043117951814099637  0.9229869739851964  0.7047394689810396  1.0000
  H   H2        1.0  0.9568820470397814  0.07701302622996178  0.295260531616954  1.0000
  H   H3        1.0  0.4039414499743462  0.9143677819868576  0.6612469775285055  1.0000
  H   H4        1.0  0.5960585502542958  0.08563221824618854  0.3387530226931315  1.0000
  H   H5        1.0  0.28096792703715356  0.30695803546899164  0.4592534610695829  1.0000
  H   H6        1.0  0.7190320731997172  0.6930419647912296  0.5407465378842216  1.0000
  H   H7        1.0  0.3916790178860241  0.26573618045226854  0.8924662994192546  1.0000
  H   H8        1.0  0.6083209823508463  0.7342638198079526  0.10753369953454982  1.0000
  H   H9        1.0  0.16857569073299927  0.5038458048295323  0.006790032363576089  1.0000
  H   H10       1.0  0.831424309654985  0.4961541940950851  0.9932099668170783  1.0000
  C   C1        1.0  0.14964645771981513  0.8218475221691642  0.6558641664537959  1.0000
  C   C2        1.0  0.8503535426599405  0.17815247672827791  0.34413583399469133  1.0000
  C   C3        1.0  0.3363367512004134  0.8151670774409224  0.6311615877993293  1.0000
  C   C4        1.0  0.6636632490282284  0.18483292279212366  0.36883841242230775  1.0000
  C   C5        1.0  0.434518756605825  0.6608280581030322  0.5626273571204231  1.0000
  C   C6        1.0  0.5654812436310457  0.339171942157189  0.43737264183338137  1.0000
  C   C7        1.0  0.31224559042615724  0.5503156986856608  0.5382000874082443  1.0000
  C   C8        1.0  0.6877544098024846  0.44968430154738537  0.46179991281339283  1.0000
  C   C9        1.0  0.37461942544475163  0.3909727281014747  0.47651593687449567  1.0000
  C   C10       1.0  0.6253805747838903  0.6090272721315713  0.5234840633471414  1.0000
  C   C11       1.0  0.43804347822441986  0.36803027263695687  0.9397699901455713  1.0000
  C   C12       1.0  0.5619565220042221  0.6319697275960892  0.06023001007606586  1.0000
  C   C13       1.0  0.3134042625586184  0.5005878023906928  0.0036624579482710906  1.0000
  C   C14       1.0  0.6865957376700235  0.49941219784235324  0.9963375422733661  1.0000
  C   C15       1.0  0.3709940178742552  0.6379175326774412  0.06488475816491507  1.0000
  C   C16       1.0  0.6290059825055003  0.36208246622000106  0.935115242283572  1.0000
  C   C17       1.0  0.24367637402745376  0.7777139741208342  0.1255601655319016  1.0000
  C   C18       1.0  0.756323626209417  0.22228602613938717  0.8744398334219028  1.0000
  C   C19       1.0  0.2965037061118044  0.9162306781979671  0.18478022958863097  1.0000
  C   C20       1.0  0.7034962941168373  0.08376932203507903  0.8152197706330062  1.0000
  C   C21       1.0  0.05602724438388205  0.7911747791760299  0.12466954546001473  1.0000
  C   C22       1.0  0.9439727544699992  0.2088252210391284  0.8753304551379788  1.0000
  N   N1        1.0  0.33733541789097504  0.03128230882333232  0.235817469773805  1.0000
  N   N2        1.0  0.662664580962906  0.9687176913918258  0.7641825308241885  1.0000
  N   N3        1.0  0.9010387262287234  0.8046133761036551  0.12219192355653727  1.0000
  N   N4        1.0  0.09896127399991855  0.19538662412939092  0.8778080766650997  1.0000
  S   S1        1.0  0.08449269306195689  0.6437945610528296  0.5979105457722467  1.0000
  S   S2        1.0  0.9155073073177987  0.35620543784461245  0.4020894546762406  1.0000
