data_image0
_chemical_formula_structural       H48C44N8O6Br2I2
_chemical_formula_sum              "H48 C44 N8 O6 Br2 I2"
_cell_length_a       10.10532603318343
_cell_length_b       11.214726670192348
_cell_length_c       11.330186649346022
_cell_angle_alpha    87.66969003182913
_cell_angle_beta     75.28344734564894
_cell_angle_gamma    67.71151671677995

_space_group_name_H-M_alt    "P 1"
_space_group_IT_number       1

loop_
  _space_group_symop_operation_xyz
  'x, y, z'

loop_
  _atom_site_type_symbol
  _atom_site_label
  _atom_site_symmetry_multiplicity
  _atom_site_fract_x
  _atom_site_fract_y
  _atom_site_fract_z
  _atom_site_occupancy
  H   H1        1.0  0.6913623870496141  0.39237598001464125  0.8300982918649711  1.0000
  H   H2        1.0  0.3086376130567873  0.6076240197683879  0.16990170747181363  1.0000
  H   H3        1.0  0.5836086145344566  0.24611960681509515  0.9518955506504693  1.0000
  H   H4        1.0  0.41639138626316297  0.7538803930340299  0.04810444960796314  1.0000
  H   H5        1.0  0.7711522322887433  0.5356962398164514  0.9309545345013474  1.0000
  H   H6        1.0  0.2288477688048707  0.46430375996712075  0.06904546484282345  1.0000
  H   H7        1.0  0.5600272474160315  0.2405452136177653  0.17693603833686616  1.0000
  H   H8        1.0  0.439972751990368  0.7594547871941455  0.8230639619089875  1.0000
  H   H9        1.0  0.747492363635079  0.5321663607103999  0.15476951742713704  1.0000
  H   H10       1.0  0.2525076370545272  0.46783364003650113  0.8452304819118416  1.0000
  H   H11       1.0  0.5976114414353577  0.8703387179715673  0.455361620620099  1.0000
  H   H12       1.0  0.4023885583750495  0.12966128187701453  0.5446383796309472  1.0000
  H   H13       1.0  0.6252822682569913  0.8832162938937849  0.29437019224341365  1.0000
  H   H14       1.0  0.3747177315534156  0.1167837059547972  0.7056298080076325  1.0000
  H   H15       1.0  0.7024175970846819  0.6505100784023259  0.34923997234176307  1.0000
  H   H16       1.0  0.29758240272572506  0.3494899214462562  0.6507600279092831  1.0000
  H   H17       1.0  0.834148761789925  0.6692392398264428  0.41733784141386865  1.0000
  H   H18       1.0  0.16585123802048185  0.3307607600221393  0.5826621588371775  1.0000
  H   H19       1.0  0.8559107206049437  0.6811924991800584  0.2569967363452402  1.0000
  H   H20       1.0  0.1440892795014578  0.3188075006029708  0.7430032629915445  1.0000
  H   H21       1.0  0.3007705224280221  0.9762310691765755  0.31736784265581847  1.0000
  H   H22       1.0  0.6992294773823847  0.023768930672006517  0.6826321575952277  1.0000
  H   H23       1.0  0.37692188888194644  0.16100952328340196  0.3207994499661244  1.0000
  H   H24       1.0  0.6230781112244551  0.8389904764996272  0.6792005493706602  1.0000
  H   H25       1.0  0.039298340359145964  0.8325401601910757  0.4082536117310348  1.0000
  H   H26       1.0  0.9607016590472534  0.1674598406208351  0.5917463885148189  1.0000
  H   H27       1.0  0.04732250723875582  0.8415082034802427  0.2494773152234787  1.0000
  H   H28       1.0  0.9526774925716511  0.15849179636833927  0.7505226850275675  1.0000
  H   H29       1.0  0.19074895144887324  0.8574772458446906  0.3033480698481682  1.0000
  H   H30       1.0  0.8092510483615336  0.14252275400389136  0.696651930402878  1.0000
  H   H31       1.0  0.9265764098496775  0.43497485334328534  0.3662142043283865  1.0000
  H   H32       1.0  0.07342358996072965  0.5650251465052967  0.6337857959226597  1.0000
  H   H33       1.0  0.41349811353680876  0.008312992556828514  0.9217402100857922  1.0000
  H   H34       1.0  0.5865018862735981  0.9916870072917535  0.0782597901652539  1.0000
  H   H35       1.0  0.31884764541477867  0.008098388388834466  0.07816411820530424  1.0000
  H   H36       1.0  0.6811523543956282  0.9919016114597476  0.9218358820457419  1.0000
  H   H37       1.0  0.16123350445286935  0.9540531532528868  0.9771356266764202  1.0000
  H   H38       1.0  0.8387664953575377  0.04594684659569536  0.022864373574626045  1.0000
  H   H39       1.0  0.1909481639247671  0.052961779827889965  0.855097394903041  1.0000
  H   H40       1.0  0.8090518358856399  0.9470382200206922  0.14490260534800506  1.0000
  H   H41       1.0  0.005613610057467401  0.14343241749987606  0.11780481031221632  1.0000
  H   H42       1.0  0.994386389348932  0.8565675833120348  0.8821951899336373  1.0000
  H   H43       1.0  0.9537225527938563  0.1996400009710303  0.9816678938514104  1.0000
  H   H44       1.0  0.04627744731254533  0.8003599988119987  0.018332105485374194  1.0000
  H   H45       1.0  0.07678775429534757  0.3242950813566986  0.10499713498143844  1.0000
  H   H46       1.0  0.9232122458110539  0.6757049184263305  0.8950028643553462  1.0000
  H   H47       1.0  0.10609740383096879  0.3241050039538103  0.94268275255146  1.0000
  H   H48       1.0  0.893902595979438  0.6758949958947718  0.05731724769958633  1.0000
  C   C1        1.0  0.006924130959708791  0.33583728400961277  0.35398927955704856  1.0000
  C   C2        1.0  0.9930758701339052  0.6641627157739595  0.6460107197871224  1.0000
  C   C3        1.0  0.6226030826432393  0.30599236372993255  0.9963790523227889  1.0000
  C   C4        1.0  0.37739691815438003  0.6940076361191925  0.0036209479356434635  1.0000
  C   C5        1.0  0.9622893169226806  0.23161157019755504  0.35198384878873507  1.0000
  C   C6        1.0  0.03771068387493899  0.76838842965157  0.6480161514696974  1.0000
  C   C7        1.0  0.823904234351392  0.22267812838961698  0.35939809021046276  1.0000
  C   C8        1.0  0.17609576545901495  0.777321871458965  0.6406019100405834  1.0000
  C   C9        1.0  0.6549499030617305  0.38419064773420464  0.17666888971886288  1.0000
  C   C10       1.0  0.34505009674867637  0.6158093521143774  0.8233311105321832  1.0000
  C   C11       1.0  0.21863786133824126  0.07488240140257042  0.32788165200539693  1.0000
  C   C12       1.0  0.7813621384721657  0.9251175984460117  0.6721183482456493  1.0000
  C   C13       1.0  0.06815600527715389  0.10195480897988096  0.3401603800329159  1.0000
  C   C14       1.0  0.9318439945332528  0.8980451908687013  0.6598396202181304  1.0000
  C   C15       1.0  0.15564800810805804  0.30689788853363886  0.34248886485701313  1.0000
  C   C16       1.0  0.8443519917023488  0.6931021113149431  0.657511135394033  1.0000
  C   C17       1.0  0.8458328230112186  0.09196591927063236  0.3547455507783356  1.0000
  C   C18       1.0  0.15416717709518274  0.9080340805123968  0.645254448558449  1.0000
  C   C19       1.0  0.2612249894853339  0.17873368332552325  0.32866578479878295  1.0000
  C   C20       1.0  0.7387750113122854  0.8212663165236019  0.6713342154596494  1.0000
  C   C21       1.0  0.7309299238354875  0.039507310337999375  0.36298613377526606  1.0000
  C   C22       1.0  0.2690700762709141  0.9604926894450296  0.6370138655615185  1.0000
  C   C23       1.0  0.6829035768424205  0.3882949756608066  0.9278396526964573  1.0000
  C   C24       1.0  0.31709642425119344  0.6117050241227655  0.0721603466477136  1.0000
  C   C25       1.0  0.7143739198432818  0.4678271324087454  0.1102296691710349  1.0000
  C   C26       1.0  0.28562608026311975  0.5321728673742838  0.8897703301657497  1.0000
  C   C27       1.0  0.07206690125784707  0.8791326226186118  0.32530647774006877  1.0000
  C   C28       1.0  0.9279330985525598  0.12086737722997026  0.6746935225109774  1.0000
  C   C29       1.0  0.6812436376367547  0.8461458965784514  0.36708148200615265  1.0000
  C   C30       1.0  0.31875636246964695  0.15385410320457782  0.632918517330632  1.0000
  C   C31       1.0  0.6078466971067141  0.30345548818728896  0.12242510888901749  1.0000
  C   C32       1.0  0.39215330270369286  0.6965445116612929  0.8775748913620287  1.0000
  C   C33       1.0  0.728021111483769  0.4691496510617773  0.9843406805985414  1.0000
  C   C34       1.0  0.271978889609845  0.5308503487217949  0.015659318745629383  1.0000
  C   C35       1.0  0.7746273166022863  0.7034739911787637  0.34641629141871105  1.0000
  C   C36       1.0  0.2253726835041153  0.2965260086042655  0.6535837079180735  1.0000
  C   C37       1.0  0.04742629854869857  0.16417632718432051  0.023272135658633324  1.0000
  C   C38       1.0  0.9525737022489208  0.8358236726648045  0.9767278645997992  1.0000
  C   C39       1.0  0.30740923134417086  0.053105651954468716  0.9907383028136655  1.0000
  C   C40       1.0  0.6925907694534487  0.9468943478946562  0.009261697444766952  1.0000
  C   C41       1.0  0.12054698130937733  0.2617703320096737  0.020264383058503175  1.0000
  C   C42       1.0  0.8794530185010295  0.7382296678389084  0.979735617192543  1.0000
  C   C43       1.0  0.17604251989535794  0.044767235608925385  0.9539649093099758  1.0000
  C   C44       1.0  0.8239574799150489  0.9552327642396566  0.046035090941070445  1.0000
  N   N1        1.0  0.9955898373418491  0.019105389418032265  0.34196753304784955  1.0000
  N   N2        1.0  0.004410163751764889  0.98089461036554  0.6580324662963213  1.0000
  N   N3        1.0  0.5764674232736037  0.31069977959527034  0.6777280809934528  1.0000
  N   N4        1.0  0.4235325761327957  0.6893002212166405  0.32227191925240084  1.0000
  N   N5        1.0  0.6066452640971043  0.3938667158363369  0.6204907665970738  1.0000
  N   N6        1.0  0.3933547365925022  0.6061332849105642  0.37950923274190473  1.0000
  N   N7        1.0  0.5494009445365287  0.22924321416968788  0.7346582548597965  1.0000
  N   N8        1.0  0.4505990552738783  0.770756785678894  0.26534174539124966  1.0000
  O   O1        1.0  0.7828323146459943  0.9105342690488366  0.3674930289734537  1.0000
  O   O2        1.0  0.21716768546040718  0.0894657307341925  0.6325069703633308  1.0000
  O   O3        1.0  0.6018137951229673  0.1073843804891735  0.3647499221983916  1.0000
  O   O4        1.0  0.39818620498343416  0.8926156192938558  0.6352500771383931  1.0000
  O   O5        1.0  0.276773208778071  0.18887811937561158  0.004748599317457021  1.0000
  O   O6        1.0  0.723226791032336  0.8111218804729705  0.9952514009335891  1.0000
  Br  Br1       1.0  0.22255837455190472  0.4440261018252296  0.3483972208612171  1.0000
  Br  Br2       1.0  0.7774416262457147  0.5559738980238954  0.6516027793972153  1.0000
  I   I1        1.0  0.6285444430124266  0.38548244098568  0.3702250241046523  1.0000
  I   I2        1.0  0.3714555567979805  0.6145175588629019  0.6297749761463938  1.0000
