data_image0
_chemical_formula_structural       H76C108N8O16Cl12
_chemical_formula_sum              "H76 C108 N8 O16 Cl12"
_cell_length_a       5.622507404796911
_cell_length_b       19.65530006732868
_cell_length_c       21.87631383259381
_cell_angle_alpha    85.79044685781993
_cell_angle_beta     84.39983918301436
_cell_angle_gamma    83.70108035806092

_space_group_name_H-M_alt    "P 1"
_space_group_IT_number       1

loop_
  _space_group_symop_operation_xyz
  'x, y, z'

loop_
  _atom_site_type_symbol
  _atom_site_label
  _atom_site_symmetry_multiplicity
  _atom_site_fract_x
  _atom_site_fract_y
  _atom_site_fract_z
  _atom_site_occupancy
  H   H1        1.0  0.1670273395453609  0.20356930088194697  0.8813398351429764  1.0000
  H   H2        1.0  0.8329726619078817  0.796430698986202  0.11866016453396899  1.0000
  H   H3        1.0  0.9923684938283405  0.23823338640201872  0.9847878511345615  1.0000
  H   H4        1.0  0.007631505483550761  0.7617666139447592  0.015212149002090615  1.0000
  H   H5        1.0  0.37172647828811134  0.34191476598964565  0.9040679980957455  1.0000
  H   H6        1.0  0.6282735231651313  0.658085233878503  0.09593200158119984  1.0000
  H   H7        1.0  0.5580153560984321  0.31080192466217044  0.8001841698569362  1.0000
  H   H8        1.0  0.44198464321345904  0.6891980756846074  0.19981583027971586  1.0000
  H   H9        1.0  0.4154304897373966  0.33240112316007214  0.007738955509342855  1.0000
  H   H10       1.0  0.5845695097742407  0.6675988766748322  0.9922610446275351  1.0000
  H   H11       1.0  0.720279666444332  0.12830062080266852  0.8235249170446989  1.0000
  H   H12       1.0  0.2797203346456286  0.8716993795450968  0.1764750830922533  1.0000
  H   H13       1.0  0.8475183411977414  0.004226034977496727  0.8247519615689072  1.0000
  H   H14       1.0  0.1524816581141499  0.995773965369281  0.17524803856774498  1.0000
  H   H15       1.0  0.5164652469002805  0.044516241255558864  0.7218102372765431  1.0000
  H   H16       1.0  0.4835347526113568  0.9554837585793455  0.2781897628603349  1.0000
  H   H17       1.0  0.37694559854634996  0.17003772486323063  0.7168692250879094  1.0000
  H   H18       1.0  0.6230544011288235  0.8299622750039305  0.2831307745887358  1.0000
  H   H19       1.0  0.14285322130252412  0.9187413313396195  0.7936546891775995  1.0000
  H   H20       1.0  0.8571467797874365  0.08125866900814586  0.20634531095935277  1.0000
  H   H21       1.0  0.24740923698838796  0.34910214301655956  0.7817381535449928  1.0000
  H   H22       1.0  0.7525907625232493  0.6508978568183447  0.21826184659188527  1.0000
  H   H23       1.0  0.22895216998176424  0.4761059979811317  0.7864291944253565  1.0000
  H   H24       1.0  0.7710478313079425  0.5238940018547602  0.21357080571182152  1.0000
  H   H25       1.0  0.6195903450758026  0.5005433098830395  0.678611376345373  1.0000
  H   H26       1.0  0.3804096544358348  0.4994566899518647  0.32138862379150496  1.0000
  H   H27       1.0  0.6584792327276818  0.3752094149413332  0.6680031483870371  1.0000
  H   H28       1.0  0.3415207669474915  0.624790584925828  0.33199685128960804  1.0000
  H   H29       1.0  0.7709603277523195  0.5930087916207227  0.7213780268104565  1.0000
  H   H30       1.0  0.22903967155957158  0.40699120872605504  0.2786219733261956  1.0000
  H   H31       1.0  0.27264850551709574  0.30828238065073  0.6165767852222717  1.0000
  H   H32       1.0  0.7273514939945416  0.6917176191841742  0.38342321491460646  1.0000
  H   H33       1.0  0.2562737504967896  0.268758470500998  0.5116458637229532  1.0000
  H   H34       1.0  0.743726250792917  0.7312415293348938  0.48835413641422504  1.0000
  H   H35       1.0  0.6547462605659379  0.15786689566980197  0.5781714393860764  1.0000
  H   H36       1.0  0.34525374052402247  0.8421331046779635  0.421828560750876  1.0000
  H   H37       1.0  0.6847595024472891  0.19296849722571208  0.6841185832455988  1.0000
  H   H38       1.0  0.31524049722788405  0.8070315026414491  0.31588141643104634  1.0000
  H   H39       1.0  0.8011247086904846  0.1667394977667583  0.4792051804464228  1.0000
  H   H40       1.0  0.1988752908211526  0.833260502068146  0.5207948196904552  1.0000
  H   H41       1.0  0.29378775387072176  0.5094039305621308  0.16038686288954362  1.0000
  H   H42       1.0  0.7062122475825209  0.49059606930601785  0.8396131367874017  1.0000
  H   H43       1.0  0.008633873158540292  0.5811149590139609  0.09575362161465897  1.0000
  H   H44       1.0  0.9913661263530972  0.41888504082094336  0.9042463785222189  1.0000
  H   H45       1.0  0.28873932193061363  0.1437930810921579  0.22425149656918578  1.0000
  H   H46       1.0  0.7112606775810236  0.8562069187427462  0.7757485035676922  1.0000
  H   H47       1.0  0.3541167725540915  0.2670124793298377  0.19823425566621103  1.0000
  H   H48       1.0  0.6458832271210817  0.7329875205373236  0.8017657440104341  1.0000
  H   H49       1.0  0.7340368190037261  0.28345349348208426  0.09361815260182761  1.0000
  H   H50       1.0  0.26596318067144725  0.7165465063850771  0.9063818470748176  1.0000
  H   H51       1.0  0.6951178428860296  0.16097838566878397  0.12414032140746117  1.0000
  H   H52       1.0  0.3048821567891436  0.8390216141983773  0.875859678269184  1.0000
  H   H53       1.0  0.06652185968047883  0.38697488208157044  0.1737537172933131  1.0000
  H   H54       1.0  0.9334781416092278  0.6130251177543214  0.826246282843865  1.0000
  H   H55       1.0  0.2592395095662443  0.3655900610943793  0.1072747414930785  1.0000
  H   H56       1.0  0.7407604897456469  0.6344099392523986  0.8927252586435735  1.0000
  H   H57       1.0  0.9218798108205782  0.9708758134625065  0.34283919657611384  1.0000
  H   H58       1.0  0.0781201904691285  0.029124186373385222  0.6571608035610643  1.0000
  H   H59       1.0  0.6423300244176523  0.9065431197900412  0.4147635707365019  1.0000
  H   H60       1.0  0.3576699748942388  0.09345688055673662  0.5852364294001502  1.0000
  H   H61       1.0  0.047280970046551365  0.32894795467015087  0.3556252513224153  1.0000
  H   H62       1.0  0.9527190294650859  0.6710520451647535  0.6443747488144627  1.0000
  H   H63       1.0  0.14248951669858398  0.20663819641741593  0.3893494876321772  1.0000
  H   H64       1.0  0.8575104828130534  0.7933618034174883  0.6106505125047008  1.0000
  H   H65       1.0  0.84410142147448  0.21637601989420097  0.29085813765551866  1.0000
  H   H66       1.0  0.15589857803715723  0.7836239799407033  0.7091418624813592  1.0000
  H   H67       1.0  0.719896776619225  0.340160621547538  0.2628750214740183  1.0000
  H   H68       1.0  0.28010322289241246  0.6598393782873662  0.7371249786628596  1.0000
  H   H69       1.0  0.5979790835206187  0.0979701956958953  0.3135834298331896  1.0000
  H   H70       1.0  0.40202091615455454  0.9020298041712659  0.6864165698434556  1.0000
  H   H71       1.0  0.7429715113185441  0.11908540283955814  0.3770294940000196  1.0000
  H   H72       1.0  0.257028487993347  0.8809145975072198  0.6229705061366324  1.0000
  H   H73       1.0  0.5398172341270359  0.5526406019462233  0.5299495635761973  1.0000
  H   H74       1.0  0.4601827655481376  0.4473593979209379  0.4700504361004479  1.0000
  H   H75       1.0  0.5847494744507773  0.16626444189470865  0.9406279761518272  1.0000
  H   H76       1.0  0.4152505268389294  0.8337355579411831  0.05937202398535099  1.0000
  C   C1        1.0  0.9675562245456939  0.2329820433170763  0.7718671739581336  1.0000
  C   C2        1.0  0.0324437747661973  0.7670179570297017  0.22813282617851835  1.0000
  C   C3        1.0  0.9727942481495397  0.27762025281486313  0.7203845923796519  1.0000
  C   C4        1.0  0.02720575116235152  0.7223797475319147  0.27961540775700017  1.0000
  C   C5        1.0  0.8762956386926688  0.25624812590666046  0.8332407646509027  1.0000
  C   C6        1.0  0.12370436081896856  0.7437518739282438  0.1667592354859753  1.0000
  C   C7        1.0  0.995623515415521  0.23531997455209833  0.8861079426648402  1.0000
  C   C8        1.0  0.004376484096116358  0.7646800252828059  0.1138920574720379  1.0000
  C   C9        1.0  0.8982693233713571  0.2541547579212363  0.9440576071702899  1.0000
  C   C10       1.0  0.10173067614028027  0.7458452419136679  0.05594239296658814  1.0000
  C   C11       1.0  0.6727634024820976  0.2926929591027333  0.9506736126738436  1.0000
  C   C12       1.0  0.3272365970295396  0.707307040732171  0.049326387463034284  1.0000
  C   C13       1.0  0.5488735728445716  0.3132930795892974  0.8985098515848297  1.0000
  C   C14       1.0  0.45112642666706576  0.6867069202456069  0.10149014855204827  1.0000
  C   C15       1.0  0.6524796551658191  0.29554729058962786  0.8408835980788896  1.0000
  C   C16       1.0  0.3475203443458182  0.7044527092452764  0.1591164020579885  1.0000
  C   C17       1.0  0.039599742394648745  0.15862569933716716  0.7697458402045776  1.0000
  C   C18       1.0  0.9604002571169886  0.841374300497737  0.23025415993230042  1.0000
  C   C19       1.0  0.8948148373166873  0.11051098421958641  0.8007687697813133  1.0000
  C   C20       1.0  0.10518516219494987  0.8894890156153179  0.19923123035556456  1.0000
  C   C21       1.0  0.9654674753249675  0.040540355091079276  0.8016823839810215  1.0000
  C   C22       1.0  0.03453252418666956  0.9594596447438251  0.19831761615585652  1.0000
  C   C23       1.0  0.19078287595517807  0.016258012173874264  0.7729137846207438  1.0000
  C   C24       1.0  0.8092171235564593  0.9837419876610298  0.22708621551613434  1.0000
  C   C25       1.0  0.3394424807342208  0.06364911384868757  0.7423141822917271  1.0000
  C   C26       1.0  0.6605575185776705  0.9363508864980901  0.257685817844925  1.0000
  C   C27       1.0  0.2618249331124221  0.13330724075264297  0.7402313172559365  1.0000
  C   C28       1.0  0.7381750665627511  0.8666927591145184  0.2597686824207086  1.0000
  C   C29       1.0  0.9551042463653298  0.3526844048359448  0.7246194857091869  1.0000
  C   C30       1.0  0.044895754924377064  0.647315594999947  0.2753805144279913  1.0000
  C   C31       1.0  0.11209262567473385  0.38253230924483833  0.7585356957142557  1.0000
  C   C32       1.0  0.8879073736371574  0.6174676911019394  0.24146430442239641  1.0000
  C   C33       1.0  0.1009337463893241  0.4530025036681886  0.7621336875902094  1.0000
  C   C34       1.0  0.8990662531223131  0.5469974961667156  0.23786631254666857  1.0000
  C   C35       1.0  0.9219645461250126  0.4964801870056053  0.7337452139984795  1.0000
  C   C36       1.0  0.07803545516469398  0.5035198128302865  0.26625478613869874  1.0000
  C   C37       1.0  0.7620283393491798  0.4675766203565917  0.6997960595833395  1.0000
  C   C38       1.0  0.23797165996271133  0.5324233799901861  0.30020394055331273  1.0000
  C   C39       1.0  0.7832139177443744  0.39697407545681607  0.6944451061424278  1.0000
  C   C40       1.0  0.21678608176726274  0.6030259243780882  0.3055548939944502  1.0000
  C   C41       1.0  0.9788094403781639  0.253223134722024  0.6580080729029323  1.0000
  C   C42       1.0  0.021190559133473473  0.7467768651128802  0.34199192723394567  1.0000
  C   C43       1.0  0.13797204936186805  0.2747932581279312  0.6084419021561709  1.0000
  C   C44       1.0  0.8620279519278385  0.7252067417079607  0.3915580979810072  1.0000
  C   C45       1.0  0.13023864183137532  0.2528951315469398  0.5496626073524157  1.0000
  C   C46       1.0  0.869761357680262  0.7471048682879644  0.4503373927844622  1.0000
  C   C47       1.0  0.9546224979120264  0.2108300708837529  0.538793513997124  1.0000
  C   C48       1.0  0.04537750337768033  0.789169928952139  0.46120648614005405  1.0000
  C   C49       1.0  0.7923402039407242  0.18956511915801916  0.5874771205436671  1.0000
  C   C50       1.0  0.20765979557091327  0.8104348806768851  0.41252287959321093  1.0000
  C   C51       1.0  0.8081275838375708  0.20991246263697236  0.6460781158036455  1.0000
  C   C52       1.0  0.19187241567406643  0.790087537197932  0.35392188433323246  1.0000
  C   C53       1.0  0.5329449646654312  0.47581771130492795  0.08322716958576498  1.0000
  C   C54       1.0  0.4670550346464599  0.5241822890418499  0.9167728305508872  1.0000
  C   C55       1.0  0.3281912277930445  0.5125365266711662  0.11049043148272708  1.0000
  C   C56       1.0  0.6718087717185928  0.48746347316373806  0.889509568654151  1.0000
  C   C57       1.0  0.16751132405699118  0.5523981198982393  0.07422690733062035  1.0000
  C   C58       1.0  0.8324886770329695  0.4476018804495262  0.9257730928063318  1.0000
  C   C59       1.0  0.5824249546472883  0.4800282669312373  0.018491738565002767  1.0000
  C   C60       1.0  0.41757504486434904  0.5199717329036669  0.9815082615718752  1.0000
  C   C61       1.0  0.7911769538544713  0.44447502863887994  0.9898890042954873  1.0000
  C   C62       1.0  0.20882304743523553  0.5555249711970119  0.010110995841690736  1.0000
  C   C63       1.0  0.6929368313072809  0.4307528903688746  0.12153384445052619  1.0000
  C   C64       1.0  0.3070631680046103  0.5692471099779033  0.878466155686126  1.0000
  C   C65       1.0  0.9618072670190563  0.40356842778336716  0.02787176066196064  1.0000
  C   C66       1.0  0.038192734270650355  0.5964315720525247  0.9721282394752175  1.0000
  C   C67       1.0  0.17041897242387713  0.17696170264226274  0.19542053384013638  1.0000
  C   C68       1.0  0.8295810270877602  0.8230382971926415  0.8045794662967416  1.0000
  C   C69       1.0  0.20495122890543405  0.24556265381887923  0.18084472243789032  1.0000
  C   C70       1.0  0.7950487704064572  0.7544373465278986  0.819155277698762  1.0000
  C   C71       1.0  0.04550514152390325  0.2863869253028105  0.1444943292214308  1.0000
  C   C72       1.0  0.9544948597658035  0.7136130745330813  0.8555056709157474  1.0000
  C   C73       1.0  0.8601091002290497  0.25539617274311877  0.12338790410338728  1.0000
  C   C74       1.0  0.13989089928258763  0.7446038270917856  0.8766120960334907  1.0000
  C   C75       1.0  0.8390449194241595  0.18642013960162424  0.1399183819952046  1.0000
  C   C76       1.0  0.1609550818655471  0.8135798602342676  0.8600816181419736  1.0000
  C   C77       1.0  0.07947058356719514  0.3611317552712904  0.13043834154524045  1.0000
  C   C78       1.0  0.9205294159444423  0.6388682445636138  0.8695616585916375  1.0000
  C   C79       1.0  0.07609887240156872  0.01471900388119537  0.41513254919760106  1.0000
  C   C80       1.0  0.9239011271100684  0.9852809959537089  0.584867450939277  1.0000
  C   C81       1.0  0.9206783471956854  0.9740578244285966  0.3923813552008019  1.0000
  C   C82       1.0  0.07932165247948762  0.025942175438564755  0.6076186444758432  1.0000
  C   C83       1.0  0.7634160800559713  0.9380927125510321  0.4327501780761005  1.0000
  C   C84       1.0  0.23658391941945583  0.061907287828002595  0.5672498216003188  1.0000
  C   C85       1.0  0.08042354250525417  0.018160808682961965  0.4794567119163674  1.0000
  C   C86       1.0  0.9195764571699191  0.9818391911841993  0.5205432877602778  1.0000
  C   C87       1.0  0.24029737350362143  0.05766624160381413  0.5036874521835761  1.0000
  C   C88       1.0  0.759702627786085  0.9423337582320778  0.49631254795360213  1.0000
  C   C89       1.0  0.23005159266975544  0.055760663004307834  0.3722783207477357  1.0000
  C   C90       1.0  0.7699484068418818  0.9442393368305965  0.6277216793891424  1.0000
  C   C91       1.0  0.4084488400859362  0.0943330473539559  0.46154813579550213  1.0000
  C   C92       1.0  0.591551159225955  0.905666952992822  0.5384518643411499  1.0000
  C   C93       1.0  0.22279610256135782  0.3020673534293499  0.3421882403018541  1.0000
  C   C94       1.0  0.7772038967505334  0.697932646917428  0.657811759834798  1.0000
  C   C95       1.0  0.27551624799606256  0.23310351555714037  0.36012772143789834  1.0000
  C   C96       1.0  0.7244837515155748  0.7668964842777638  0.6398722786989797  1.0000
  C   C97       1.0  0.5005996411382911  0.2002297523719487  0.34136352784818996  1.0000
  C   C98       1.0  0.499400358536882  0.7997702474952126  0.6586364718284552  1.0000
  C   C99       1.0  0.6649177115036685  0.239334679566575  0.3062531868380717  1.0000
  C   C100      1.0  0.33508228800796885  0.7606653202683292  0.6937468132988063  1.0000
  C   C101      1.0  0.597895446101621  0.3082128508332831  0.29055865416374277  1.0000
  C   C102      1.0  0.4021045534100164  0.6917871490016212  0.7094413459731351  1.0000
  C   C103      1.0  0.5717530359311525  0.12517637580277166  0.35632159309253186  1.0000
  C   C104      1.0  0.42824696338073875  0.8748236245440063  0.6436784070441203  1.0000
  C   C105      1.0  0.3560739406707537  0.5776262202570883  0.5355699874634092  1.0000
  C   C106      1.0  0.6439260586411375  0.42237378008968945  0.46443001267324285  1.0000
  C   C107      1.0  0.5472619200314646  0.11719461683050414  0.964503585476005  1.0000
  C   C108      1.0  0.45273807928042675  0.8828053835162738  0.0354964146606471  1.0000
  N   N1        1.0  0.9066682266905928  0.39955266083149815  0.09135610036553522  1.0000
  N   N2        1.0  0.09333177298458055  0.600447339035663  0.9086438993111099  1.0000
  N   N3        1.0  0.9884963568770744  0.14767378669898412  0.17576462099985615  1.0000
  N   N4        1.0  0.011503642634562983  0.8523262131359203  0.8242353791370218  1.0000
  N   N5        1.0  0.39845518171400396  0.09049728421545243  0.39860339504270903  1.0000
  N   N6        1.0  0.6015448179611693  0.9095027156517087  0.6013966046339362  1.0000
  N   N7        1.0  0.37858802805400615  0.339200614946644  0.3077042160731087  1.0000
  N   N8        1.0  0.6214119712578852  0.6607993854001338  0.6922957840635434  1.0000
  O   O1        1.0  0.5813478903355072  0.30860316932430926  0.00832287491160849  1.0000
  O   O2        1.0  0.41865210917613005  0.6913968305105951  0.9916771252252696  1.0000
  O   O3        1.0  0.27050942222369834  0.9488724851851513  0.7734059180462922  1.0000
  O   O4        1.0  0.729490577451475  0.05112751468200984  0.22659408163035288  1.0000
  O   O5        1.0  0.9113963316816343  0.5642694698416514  0.7411312472673484  1.0000
  O   O6        1.0  0.08860366957186208  0.43573053053837096  0.25886875240937113  1.0000
  O   O7        1.0  0.9459712375098707  0.1913097859323797  0.48070573861039645  1.0000
  O   O8        1.0  0.054028762165302516  0.8086902139347815  0.5192942610662487  1.0000
  O   O9        1.0  0.6478593586007476  0.41914426858434367  0.17737908550333867  1.0000
  O   O10       1.0  0.3521406407111434  0.5808557317624342  0.8226209146333134  1.0000
  O   O11       1.0  0.15074911834461746  0.3734773352141137  0.004082954721865468  1.0000
  O   O12       1.0  0.8492508831086252  0.626522664654035  0.9959170449550799  1.0000
  O   O13       1.0  0.21660546235309952  0.0613011389272278  0.3161845811124656  1.0000
  O   O14       1.0  0.7833945371585378  0.9386988609076764  0.6838154190244123  1.0000
  O   O15       1.0  0.5575413542221751  0.12770043228627997  0.48106451944689255  1.0000
  O   O16       1.0  0.4424586454529982  0.8722995675808812  0.5189354802297527  1.0000
  Cl  Cl1       1.0  0.20086159425184424  0.5335608766446736  0.5980589310474733  1.0000
  Cl  Cl2       1.0  0.7991384070378624  0.4664391231912183  0.40194106908970484  1.0000
  Cl  Cl3       1.0  0.3686458648936309  0.6641294484572997  0.5504850642420016  1.0000
  Cl  Cl4       1.0  0.6313541345817962  0.33587055192173526  0.4495149354344176  1.0000
  Cl  Cl5       1.0  0.22157218999654044  0.5722605274451814  0.4661313930508224  1.0000
  Cl  Cl6       1.0  0.7784278093153507  0.4277394729015966  0.5338686070858296  1.0000
  Cl  Cl7       1.0  0.4096735300480494  0.07038026324601103  0.9140347268130377  1.0000
  Cl  Cl8       1.0  0.5903264694635879  0.9296197365888932  0.08596527332384032  1.0000
  Cl  Cl9       1.0  0.8227169592513677  0.07395113812575739  0.9843866368534189  1.0000
  Cl  Cl10      1.0  0.1772830420383391  0.9260488617101345  0.015613363283759226  1.0000
  Cl  Cl11      1.0  0.35214322627403877  0.13557657540592374  0.03170497353342247  1.0000
  Cl  Cl12      1.0  0.6478567734011345  0.8644234244612375  0.9682950261432226  1.0000
