data_image0
_chemical_formula_structural       H72C88N8O8Br8
_chemical_formula_sum              "H72 C88 N8 O8 Br8"
_cell_length_a       11.078223520721705
_cell_length_b       9.857564824639283
_cell_length_c       19.22698631495663
_cell_angle_alpha    90.0
_cell_angle_beta     104.02577196216389
_cell_angle_gamma    90.0

_space_group_name_H-M_alt    "P 1"
_space_group_IT_number       1

loop_
  _space_group_symop_operation_xyz
  'x, y, z'

loop_
  _atom_site_type_symbol
  _atom_site_label
  _atom_site_symmetry_multiplicity
  _atom_site_fract_x
  _atom_site_fract_y
  _atom_site_fract_z
  _atom_site_occupancy
  H   H1        1.0  0.7452661157170113  0.5706656522246962  0.7127163805754898  1.0000
  H   H2        1.0  0.25473388386839485  0.5706656522246962  0.7872836195199859  1.0000
  H   H3        1.0  0.25473388380336076  0.429334347304672  0.2872836197487657  1.0000
  H   H4        1.0  0.7452661163810709  0.429334347304672  0.2127163802937886  1.0000
  H   H5        1.0  0.5992917823721505  0.43152671330828996  0.7631026947540864  1.0000
  H   H6        1.0  0.40070821721325567  0.43152671330828996  0.7368973053413894  1.0000
  H   H7        1.0  0.40070821787731536  0.5684732862210782  0.23689730505968817  1.0000
  H   H8        1.0  0.5992917823071164  0.5684732862210782  0.26310269498286615  1.0000
  H   H9        1.0  0.9100930219708361  0.22585437170396386  0.8996909612388267  1.0000
  H   H10       1.0  0.08990697761457016  0.22585437170396386  0.6003090388566491  1.0000
  H   H11       1.0  0.08990697754953605  0.7741456278254044  0.10030903908542886  1.0000
  H   H12       1.0  0.9100930217226836  0.7741456278254044  0.3996909609321058  1.0000
  H   H13       1.0  0.05533180095419544  0.358495058654541  0.8462209015746497  1.0000
  H   H14       1.0  0.9446681995434231  0.358495058654541  0.6537790985458457  1.0000
  H   H15       1.0  0.9446681992952703  0.6415049408748272  0.1537790982391249  1.0000
  H   H16       1.0  0.05533180088916134  0.6415049408748272  0.3462209018034294  1.0000
  H   H17       1.0  0.698057413912604  0.26503669886802933  0.9202304216293912  1.0000
  H   H18       1.0  0.30194258567280224  0.26503669886802933  0.5797695784660847  1.0000
  H   H19       1.0  0.30194258542464975  0.734963300661339  0.07976957815936381  1.0000
  H   H20       1.0  0.6980574147597821  0.734963300661339  0.4202304218831905  1.0000
  H   H21       1.0  0.8680413563820868  0.9290962071187943  0.7030687293537483  1.0000
  H   H22       1.0  0.13195864411553157  0.9290962071187943  0.796931270766747  1.0000
  H   H23       1.0  0.1319586440504975  0.07090379241057398  0.2969312709955268  1.0000
  H   H24       1.0  0.8680413561339343  0.07090379241057398  0.20306872904702752  1.0000
  H   H25       1.0  0.7174767061367787  0.0487828645872077  0.7579073383409096  1.0000
  H   H26       1.0  0.2825232934486274  0.0487828645872077  0.742092661754566  1.0000
  H   H27       1.0  0.282523293200475  0.9512171349421605  0.24209266144784533  1.0000
  H   H28       1.0  0.7174767060717446  0.9512171349421605  0.2579073385696894  1.0000
  H   H29       1.0  0.798226260853823  0.7686605449513002  0.9348345029796326  1.0000
  H   H30       1.0  0.20177373873158327  0.7686605449513002  0.5651654971158433  1.0000
  H   H31       1.0  0.20177373848343078  0.23133945559251728  0.06516549680912255  1.0000
  H   H32       1.0  0.7982262607887888  0.23133945559251728  0.4348345032084122  1.0000
  H   H33       1.0  0.9478437861343806  0.6497030051470505  0.880166696103347  1.0000
  H   H34       1.0  0.052156214363237814  0.6497030051470505  0.6198333040171484  1.0000
  H   H35       1.0  0.05215621411508532  0.3502969943823177  0.11983330371042768  1.0000
  H   H36       1.0  0.9478437860693464  0.3502969943823177  0.38016669633212663  1.0000
  H   H37       1.0  0.6489449632440893  0.07430204548787252  0.8633012959948035  1.0000
  H   H38       1.0  0.35105503707041064  0.07430204548787252  0.6366987035901913  1.0000
  H   H39       1.0  0.35105503700537655  0.9256979540414957  0.13669870381897115  1.0000
  H   H40       1.0  0.6489449631790551  0.9256979540414957  0.3633012962235832  1.0000
  H   H41       1.0  0.4752350662057468  0.838514348831834  0.025321485143103367  1.0000
  H   H42       1.0  0.5247649337955665  0.838514348831834  0.4746785143639505  1.0000
  H   H43       1.0  0.524764934043719  0.16148565069753426  0.9746785146706711  1.0000
  H   H44       1.0  0.4752350664538993  0.16148565069753426  0.5253214854498242  1.0000
  H   H45       1.0  0.6498653918614788  0.9340103710996303  0.9714135397008478  1.0000
  H   H46       1.0  0.3501346077239274  0.9340103710996303  0.5285864603946281  1.0000
  H   H47       1.0  0.35013460765889337  0.06598962944418715  0.028586460623407882  1.0000
  H   H48       1.0  0.6498653925255384  0.06598962944418715  0.4714135394191465  1.0000
  H   H49       1.0  0.8087664749931096  0.8208751485736341  0.1868919187463112  1.0000
  H   H50       1.0  0.19123352519132214  0.8208751485736341  0.3131080812962431  1.0000
  H   H51       1.0  0.19123352525635626  0.17912485197018355  0.8131080810674634  1.0000
  H   H52       1.0  0.8087664750581438  0.17912485197018355  0.6868919185175315  1.0000
  H   H53       1.0  0.774409884268943  0.8050310143702645  0.5778577762595876  1.0000
  H   H54       1.0  0.2255901162286754  0.8050310143702645  0.9221422238609077  1.0000
  H   H55       1.0  0.22559011598052295  0.19496898617355313  0.422142223554187  1.0000
  H   H56       1.0  0.7744098842039088  0.19496898617355313  0.07785777648836731  1.0000
  H   H57       1.0  0.6109886658716912  0.8823567731717433  0.6384803647127512  1.0000
  H   H58       1.0  0.38901133462592724  0.8823567731717433  0.8615196354077442  1.0000
  H   H59       1.0  0.3890113345608931  0.11764322737207421  0.361519635636524  1.0000
  H   H60       1.0  0.6109886656235387  0.11764322737207421  0.13848036440603037  1.0000
  H   H61       1.0  0.44967902979630686  0.7200195318279048  0.6576260668882884  1.0000
  H   H62       1.0  0.5503209697890994  0.7200195318279048  0.8423739332071875  1.0000
  H   H63       1.0  0.5503209695409468  0.2799804687159127  0.3423739329004666  1.0000
  H   H64       1.0  0.44967903064348497  0.2799804687159127  0.15762606714208774  1.0000
  H   H65       1.0  0.45406315323038504  0.47921132389538806  0.6173204557743633  1.0000
  H   H66       1.0  0.5459368472672333  0.47921132389538806  0.882679544346132  1.0000
  H   H67       1.0  0.5459368470190809  0.5207886766484295  0.3826795440394113  1.0000
  H   H68       1.0  0.4540631529822325  0.5207886766484295  0.11732045546764248  1.0000
  H   H69       1.0  0.6135610893981439  0.40423306677527365  0.5554612455058683  1.0000
  H   H70       1.0  0.386438910916356  0.40423306677527365  0.9445387540791266  1.0000
  H   H71       1.0  0.38643891085132187  0.595766933768544  0.4445387543079063  1.0000
  H   H72       1.0  0.6135610893331098  0.595766933768544  0.05546124573464797  1.0000
  C   C1        1.0  0.9999999997330042  0.5607055604833171  0.7499999999120708  1.0000
  C   C2        1.0  0.9999999996679702  0.4392944390460512  0.2500000001408506  1.0000
  C   C3        1.0  0.9999999997330042  0.6998656668993758  0.7499999999120708  1.0000
  C   C4        1.0  0.9999999996679702  0.3001343326299925  0.2500000001408506  1.0000
  C   C5        1.0  0.9104066348182019  0.4776142499445631  0.7775797104935437  1.0000
  C   C6        1.0  0.08959336549629802  0.4776142499445631  0.7224202890914511  1.0000
  C   C7        1.0  0.08959336543126394  0.5223857505992545  0.22242028932023086  1.0000
  C   C8        1.0  0.9104066347531679  0.5223857505992545  0.2775797107223234  1.0000
  C   C9        1.0  0.7814711230416487  0.49471446921764994  0.7534545776383721  1.0000
  C   C10       1.0  0.21852887654375755  0.49471446921764994  0.7465454224571038  1.0000
  C   C11       1.0  0.21852887739093557  0.5052855313261675  0.24654542271090307  1.0000
  C   C12       1.0  0.7814711227934962  0.5052855313261675  0.25345457733165117  1.0000
  C   C13       1.0  0.6993580389256251  0.4180143203015442  0.7819168192989122  1.0000
  C   C14       1.0  0.3006419615719932  0.4180143203015442  0.7180831808215831  1.0000
  C   C15       1.0  0.3006419613238407  0.5819856792278241  0.21808318051486228  1.0000
  C   C16       1.0  0.6993580388605911  0.5819856792278241  0.28191681952769204  1.0000
  C   C17       1.0  0.7468171316267632  0.3249650676395344  0.8360839955210748  1.0000
  C   C18       1.0  0.25318286795864303  0.3249650676395344  0.6639160045744009  1.0000
  C   C19       1.0  0.2531828677104905  0.6750349329042832  0.16391600426768013  1.0000
  C   C20       1.0  0.7468171322908228  0.6750349329042832  0.33608399523937366  1.0000
  C   C21       1.0  0.8745809256474228  0.3015640092540583  0.8586329933928656  1.0000
  C   C22       1.0  0.12541907466707716  0.3015640092540583  0.6413670061921293  1.0000
  C   C23       1.0  0.12541907460204307  0.69843599027531  0.14136700642090907  1.0000
  C   C24       1.0  0.8745809255823888  0.69843599027531  0.35863299362164525  1.0000
  C   C25       1.0  0.9555222149814613  0.3762048625569859  0.8286018885518539  1.0000
  C   C26       1.0  0.04447778551615702  0.3762048625569859  0.6713981115686414  1.0000
  C   C27       1.0  0.04447778545112294  0.6237951379868316  0.17139811179742118  1.0000
  C   C28       1.0  0.9555222147333088  0.6237951379868316  0.32860188824513314  1.0000
  C   C29       1.0  0.9178645183221079  0.7777364497606073  0.7862059545973791  1.0000
  C   C30       1.0  0.08213548217551041  0.7777364497606073  0.7137940455231163  1.0000
  C   C31       1.0  0.08213548192735791  0.22226355078321022  0.21379404521639553  1.0000
  C   C32       1.0  0.9178645182570738  0.22226355078321022  0.28620595482615874  1.0000
  C   C33       1.0  0.8539208879937575  0.8937269312172524  0.7542014224614684  1.0000
  C   C34       1.0  0.14607911140853036  0.8937269312172524  0.7457985770985069  1.0000
  C   C35       1.0  0.14607911134349627  0.10627306932656508  0.24579857732728672  1.0000
  C   C36       1.0  0.8539208888409354  0.10627306932656508  0.2542014227152676  1.0000
  C   C37       1.0  0.7695184595211494  0.9619979182177997  0.7848728049859071  1.0000
  C   C38       1.0  0.23048154006425692  0.9619979182177997  0.7151271951095687  1.0000
  C   C39       1.0  0.23048153999922283  0.03800208131156855  0.2151271953383485  1.0000
  C   C40       1.0  0.7695184592729968  0.03800208131156855  0.28487280467918624  1.0000
  C   C41       1.0  0.7482165403783396  0.9165127027537049  0.8497030760467194  1.0000
  C   C42       1.0  0.2517834601192787  0.9165127027537049  0.6502969240737762  1.0000
  C   C43       1.0  0.2517834598711262  0.08348729677566338  0.1502969237670553  1.0000
  C   C44       1.0  0.7482165401301871  0.08348729677566338  0.34970307573999854  1.0000
  C   C45       1.0  0.8132777963318407  0.803604160958675  0.8838352161270149  1.0000
  C   C46       1.0  0.18672220307044704  0.803604160958675  0.6161647834329604  1.0000
  C   C47       1.0  0.18672220391762512  0.19639583857069318  0.11616478368675985  1.0000
  C   C48       1.0  0.8132777962668066  0.19639583857069318  0.3838352163557945  1.0000
  C   C49       1.0  0.8971382012729852  0.7364884531982435  0.8524789024158868  1.0000
  C   C50       1.0  0.1028617983124211  0.7364884531982435  0.6475210976795891  1.0000
  C   C51       1.0  0.10286179824738698  0.2635115473455741  0.14752109790836884  1.0000
  C   C52       1.0  0.8971382010248327  0.2635115473455741  0.3524789021091659  1.0000
  C   C53       1.0  0.5711339586800853  0.8510819628626687  0.0549837631379329  1.0000
  C   C54       1.0  0.4288660405921343  0.8510819628626687  0.44501623687960185  1.0000
  C   C55       1.0  0.42886604065716843  0.1489180366666995  0.9450162366508221  1.0000
  C   C56       1.0  0.5711339589282378  0.1489180366666995  0.5549837634446537  1.0000
  C   C57       1.0  0.7698640871892461  0.8998415468522761  0.0753878000424979  1.0000
  C   C58       1.0  0.23013591208297346  0.8998415468522761  0.42461219997503685  1.0000
  C   C59       1.0  0.2301359121480075  0.10015845267709196  0.924612199746257  1.0000
  C   C60       1.0  0.7698640872542803  0.10015845267709196  0.5753877998137182  1.0000
  C   C61       1.0  0.7444981437380369  0.8429097153113626  0.13592536460113597  1.0000
  C   C62       1.0  0.2555018564463948  0.8429097153113626  0.3640746354414184  1.0000
  C   C63       1.0  0.25550185651142887  0.15709028421800564  0.8640746352126387  1.0000
  C   C64       1.0  0.7444981439861894  0.15709028421800564  0.6359253649078567  1.0000
  C   C65       1.0  0.6998394269101205  0.6017084640594332  0.5618733688400072  1.0000
  C   C66       1.0  0.30016057267528573  0.6017084640594332  0.9381266312554685  1.0000
  C   C67       1.0  0.30016057333934537  0.39829153648438426  0.4381266309737674  1.0000
  C   C68       1.0  0.699839426661968  0.39829153648438426  0.06187336853328636  1.0000
  C   C69       1.0  0.7021079821184661  0.7356224999783708  0.5854987262723431  1.0000
  C   C70       1.0  0.2978920183791523  0.7356224999783708  0.9145012738481523  1.0000
  C   C71       1.0  0.29789201813099975  0.26437749955099743  0.41450127354143146  1.0000
  C   C72       1.0  0.7021079818703135  0.26437749955099743  0.0854987259656223  1.0000
  C   C73       1.0  0.6109000777593008  0.7777766118094543  0.6200230686083671  1.0000
  C   C74       1.0  0.38909992255519926  0.7777766118094543  0.8799769309766277  1.0000
  C   C75       1.0  0.3890999224901652  0.2222233887343632  0.37997693120540743  1.0000
  C   C76       1.0  0.6109000776942667  0.2222233887343632  0.12002306883714688  1.0000
  C   C77       1.0  0.5206965974112763  0.6865157602701981  0.6309467075905808  1.0000
  C   C78       1.0  0.47930340217412987  0.6865157602701981  0.8690532925048949  1.0000
  C   C79       1.0  0.47930340302130797  0.31348423925917007  0.3690532927586943  1.0000
  C   C80       1.0  0.5206965971631239  0.31348423925917007  0.13094670728386  1.0000
  C   C81       1.0  0.5222247328034721  0.5522472301062656  0.6079516587648623  1.0000
  C   C82       1.0  0.47777526678193405  0.5522472301062656  0.8920483413306135  1.0000
  C   C83       1.0  0.47777526653378155  0.44775277043755196  0.3920483410238927  1.0000
  C   C84       1.0  0.5222247336506503  0.44775277043755196  0.10795165901866166  1.0000
  C   C85       1.0  0.6119680951887029  0.508756493030064  0.5729436141086703  1.0000
  C   C86       1.0  0.3880319043967033  0.508756493030064  0.9270563859868054  1.0000
  C   C87       1.0  0.388031905060763  0.49124350649930415  0.4270563857051043  1.0000
  C   C88       1.0  0.6119680951236687  0.49124350649930415  0.07294361433745004  1.0000
  N   N1        1.0  0.6193421820782619  0.8140407425921887  0.12245484089330419  1.0000
  N   N2        1.0  0.38065781810617  0.8140407425921887  0.37754515914925013  1.0000
  N   N3        1.0  0.3806578183543225  0.18595925693717957  0.877545159455971  1.0000
  N   N4        1.0  0.6193421812310838  0.18595925693717957  0.6224548406395048  1.0000
  N   N5        1.0  0.6592235636231267  0.9042614396731784  0.023925640069060818  1.0000
  N   N6        1.0  0.340776436561305  0.9042614396731784  0.4760743599734935  1.0000
  N   N7        1.0  0.3407764368094575  0.09573856087063921  0.9760743602802143  1.0000
  N   N8        1.0  0.6592235636881609  0.09573856087063921  0.5239256398402811  1.0000
  O   O1        1.0  0.6642874149852376  0.25603405961800063  0.8684049368055179  1.0000
  O   O2        1.0  0.3357125846001686  0.25603405961800063  0.6315950632899578  1.0000
  O   O3        1.0  0.3357125843520161  0.7439659399113676  0.13159506298323706  1.0000
  O   O4        1.0  0.6642874149202035  0.7439659399113676  0.3684049370342977  1.0000
  O   O5        1.0  0.663626248089355  0.9795290360013771  0.8810393973934723  1.0000
  O   O6        1.0  0.3363737524082634  0.9795290360013771  0.6189606027270231  1.0000
  O   O7        1.0  0.3363737521601109  0.020470963527991225  0.11896060242030225  1.0000
  O   O8        1.0  0.6636262480243209  0.020470963527991225  0.3810393976222521  1.0000
  Br  Br1       1.0  0.9152295286774098  0.9780034868147855  0.05981173453991688  1.0000
  Br  Br2       1.0  0.08477047150702191  0.9780034868147855  0.4401882655026374  1.0000
  Br  Br3       1.0  0.08477047157205601  0.02199651271458258  0.9401882652738576  1.0000
  Br  Br4       1.0  0.9152295289255624  0.02199651271458258  0.5598117348466376  1.0000
  Br  Br5       1.0  0.819441023320021  0.5443906538242188  0.510789908034044  1.0000
  Br  Br6       1.0  0.18055897626538517  0.5443906538242188  0.9892100920614317  1.0000
  Br  Br7       1.0  0.1805589769294448  0.45560934570514944  0.4892100917797305  1.0000
  Br  Br8       1.0  0.819441023254987  0.45560934570514944  0.010789908262823805  1.0000
