data_image0
_chemical_formula_structural       H52C28N12O4
_chemical_formula_sum              "H52 C28 N12 O4"
_cell_length_a       13.507997198353264
_cell_length_b       4.525599831508514
_cell_length_c       13.86583296128741
_cell_angle_alpha    90.0
_cell_angle_beta     111.5271499089763
_cell_angle_gamma    90.0

_space_group_name_H-M_alt    "P 1"
_space_group_IT_number       1

loop_
  _space_group_symop_operation_xyz
  'x, y, z'

loop_
  _atom_site_type_symbol
  _atom_site_label
  _atom_site_symmetry_multiplicity
  _atom_site_fract_x
  _atom_site_fract_y
  _atom_site_fract_z
  _atom_site_occupancy
  H   H1        1.0  0.6644342016213646  0.5310720500002472  0.0950087308005057  1.0000
  H   H2        1.0  0.8355657980691049  0.5310720500002472  0.40499126852429135  1.0000
  H   H3        1.0  0.3355657986324045  0.46892794966642365  0.9049912686315712  1.0000
  H   H4        1.0  0.1644342013819265  0.46892794966642365  0.5950087313356978  1.0000
  H   H5        1.0  0.7024012942338632  0.8731614608273537  0.16376428445061847  1.0000
  H   H6        1.0  0.7975987062454383  0.8731614608273537  0.3362357158836349  1.0000
  H   H7        1.0  0.2975987060129531  0.12683853883931717  0.8362357157001427  1.0000
  H   H8        1.0  0.20240129400137788  0.12683853883931717  0.6637642842671261  1.0000
  H   H9        1.0  0.28890615690713684  0.124807250094785  0.3341640061490434  1.0000
  H   H10       1.0  0.21109384281490243  0.124807250094785  0.1658359941402932  1.0000
  H   H11       1.0  0.7110938425438945  0.8751927495718859  0.6658359937109456  1.0000
  H   H12       1.0  0.7889061574319138  0.8751927495718859  0.8341640060104679  1.0000
  H   H13       1.0  0.2820279434732276  0.5960679932898139  0.4518525639369574  1.0000
  H   H14       1.0  0.21797205705154932  0.5960679932898139  0.04814743592446704  1.0000
  H   H15       1.0  0.7179720567735886  0.40393200637685694  0.5481474362138037  1.0000
  H   H16       1.0  0.7820279431952669  0.40393200637685694  0.9518525642262943  1.0000
  H   H17       1.0  0.40645596526773126  0.6184480763220866  0.4370894869369523  1.0000
  H   H18       1.0  0.09354403525704576  0.6184480763220866  0.06291051292447218  1.0000
  H   H19       1.0  0.593544034979085  0.3815519233445842  0.5629105132138088  1.0000
  H   H20       1.0  0.9064559649897705  0.3815519233445842  0.937089487226289  1.0000
  H   H21       1.0  0.4303970850004645  0.133865739914097  0.513065920833541  1.0000
  H   H22       1.0  0.06960291501386648  0.133865739914097  0.986934079133728  1.0000
  H   H23       1.0  0.5696029152463518  0.8661342597525739  0.4869340793172202  1.0000
  H   H24       1.0  0.9303970852329498  0.8661342597525739  0.013065921017033152  1.0000
  H   H25       1.0  0.3084915351199677  0.0964688276149408  0.5318001366236809  1.0000
  H   H26       1.0  0.19150846489436327  0.0964688276149408  0.968199863343588  1.0000
  H   H27       1.0  0.6915084643310637  0.9035311720517301  0.4681998632363082  1.0000
  H   H28       1.0  0.808491535352453  0.9035311720517301  0.03180013680717315  1.0000
  H   H29       1.0  0.5005437127450854  0.6832752662908929  0.6257632583560215  1.0000
  H   H30       1.0  0.9994562872237702  0.6832752662908929  0.8742367420840762  1.0000
  H   H31       1.0  0.49945628750173093  0.31672473337577794  0.3742367417947396  1.0000
  H   H32       1.0  0.0005437130230460568  0.31672473337577794  0.12576325806668487  1.0000
  H   H33       1.0  0.37865764936328816  0.6588391464134671  0.645154479111541  1.0000
  H   H34       1.0  0.12134235065104279  0.6588391464134671  0.854845520855728  1.0000
  H   H35       1.0  0.6213423508835281  0.3411608532532038  0.3548455210392202  1.0000
  H   H36       1.0  0.8786576495957734  0.3411608532532038  0.14515447929503322  1.0000
  H   H37       1.0  0.41086177303534516  0.16937617963108628  0.7245372472035392  1.0000
  H   H38       1.0  0.08913822697898584  0.16937617963108628  0.7754627527637297  1.0000
  H   H39       1.0  0.5891382272114711  0.8306238200355845  0.27546275294722194  1.0000
  H   H40       1.0  0.9108617732678304  0.8306238200355845  0.22453724738703146  1.0000
  H   H41       1.0  0.5357533322854462  0.17720568761217287  0.7101481025241764  1.0000
  H   H42       1.0  0.9642466676903622  0.17720568761217287  0.7898518971972373  1.0000
  H   H43       1.0  0.46424666796137004  0.8227943120544979  0.28985189762658475  1.0000
  H   H44       1.0  0.03575333255645408  0.8227943120544979  0.21014810295352399  1.0000
  H   H45       1.0  0.4659975492586285  0.727023727792405  0.8397825909026914  1.0000
  H   H46       1.0  0.03400245075570238  0.727023727792405  0.6602174090645774  1.0000
  H   H47       1.0  0.5340024509951405  0.2729762718742659  0.16021740852938549  1.0000
  H   H48       1.0  0.9659975494911138  0.2729762718742659  0.3397825910861836  1.0000
  H   H49       1.0  0.5904213236669251  0.7184189568338955  0.8234682440072761  1.0000
  H   H50       1.0  0.9095786763019303  0.7184189568338955  0.6765317564328216  1.0000
  H   H51       1.0  0.4095786765798911  0.28158104283277535  0.17653175614348507  1.0000
  H   H52       1.0  0.09042132394488583  0.28158104283277535  0.3234682437179394  1.0000
  C   C1        1.0  0.7500000002431272  0.49127967844627074  0.24999999980778456  1.0000
  C   C2        1.0  0.25000000000368905  0.5087203212204001  0.7500000003429765  1.0000
  C   C3        1.0  0.24999999986101962  0.7420304390635079  0.25000000014466833  1.0000
  C   C4        1.0  0.7500000003857965  0.257969560603163  0.7500000000060927  1.0000
  C   C5        1.0  0.33841302177309834  0.7515455887902228  0.43855017160620346  1.0000
  C   C6        1.0  0.16158697874472577  0.7515455887902228  0.06144982897390521  1.0000
  C   C7        1.0  0.661586978473718  0.24845441087644793  0.5614498285445576  1.0000
  C   C8        1.0  0.8384130215020904  0.24845441087644793  0.9385501711768559  1.0000
  C   C9        1.0  0.3766780851835028  0.9714871141257087  0.5275527821243468  1.0000
  C   C10       1.0  0.12332191483082809  0.9714871141257087  0.9724472178429222  1.0000
  C   C11       1.0  0.6233219150633134  0.028512885540962183  0.47244721802641443  1.0000
  C   C12       1.0  0.8766780846202032  0.028512885540962183  0.027552782017066946  1.0000
  C   C13       1.0  0.43387193753868997  0.8153369691040607  0.6305719451998721  1.0000
  C   C14       1.0  0.06612806247564093  0.8153369691040607  0.8694280547673967  1.0000
  C   C15       1.0  0.5661280619123413  0.18466303056261013  0.3694280546601169  1.0000
  C   C16       1.0  0.9338719377711753  0.18466303056261013  0.13057194538336436  1.0000
  C   C17       1.0  0.47599982557370474  0.030122886484764425  0.7211824067810391  1.0000
  C   C18       1.0  0.024000174440626253  0.030122886484764425  0.7788175931862297  1.0000
  C   C19       1.0  0.5240001746731116  0.9698771131819064  0.278817593369722  1.0000
  C   C20       1.0  0.9759998258061899  0.9698771131819064  0.2211824069645314  1.0000
  C   C21       1.0  0.5259203602441324  0.8654267137654748  0.824865011984769  1.0000
  C   C22       1.0  0.9740796397247232  0.8654267137654748  0.6751349884553287  1.0000
  C   C23       1.0  0.4740796400026839  0.13457328811084787  0.17513498816599202  1.0000
  C   C24       1.0  0.025920360522093077  0.13457328811084787  0.3248650116954324  1.0000
  C   C25       1.0  0.5695020564245089  0.06817889594475063  0.9111697367424049  1.0000
  C   C26       1.0  0.9304979435512994  0.06817889594475063  0.5888302629790086  1.0000
  C   C27       1.0  0.4304979438223074  0.9318211059315721  0.08883026340835624  1.0000
  C   C28       1.0  0.06950205589973191  0.9318211059315721  0.41116973688098046  1.0000
  N   N1        1.0  0.7011514404541396  0.6471746396153917  0.16165768380308995  1.0000
  N   N2        1.0  0.7988485600321148  0.6471746396153917  0.33834231581247926  1.0000
  N   N3        1.0  0.29884855979267655  0.3528253600512792  0.8383423163476712  1.0000
  N   N4        1.0  0.2011514402216544  0.3528253600512792  0.6616576836195978  1.0000
  N   N5        1.0  0.2878529483761705  0.8987464913892371  0.33969824231634105  1.0000
  N   N6        1.0  0.21214705134586878  0.8987464913892371  0.16030175797299556  1.0000
  N   N7        1.0  0.7121470518706458  0.10125350827743372  0.66030175783442  1.0000
  N   N8        1.0  0.7878529481051626  0.10125350827743372  0.8396982418869935  1.0000
  N   N9        1.0  0.6035916987675192  0.2387350186107517  0.9781705174037812  1.0000
  N   N10       1.0  0.8964083012013362  0.2387350186107517  0.5218294830363166  1.0000
  N   N11       1.0  0.39640830147929695  0.761264983265571  0.02182948274697992  1.0000
  N   N12       1.0  0.10359169824969514  0.761264983265571  0.4781705168236725  1.0000
  O   O1        1.0  0.7500000002431272  0.21169548693408324  0.24999999980778456  1.0000
  O   O2        1.0  0.25000000000368905  0.7883045127325876  0.7500000003429765  1.0000
  O   O3        1.0  0.24999999986101962  0.46211139249200883  0.25000000014466833  1.0000
  O   O4        1.0  0.7500000003857965  0.537888607174662  0.7500000000060927  1.0000
