data_image0
_chemical_formula_structural       H38C34N14O6Cl2Br2
_chemical_formula_sum              "H38 C34 N14 O6 Cl2 Br2"
_cell_length_a       7.278653884168154
_cell_length_b       9.82149485415843
_cell_length_c       13.558749550842377
_cell_angle_alpha    97.23710643053546
_cell_angle_beta     91.51432395213807
_cell_angle_gamma    94.80179603103744

_space_group_name_H-M_alt    "P 1"
_space_group_IT_number       1

loop_
  _space_group_symop_operation_xyz
  'x, y, z'

loop_
  _atom_site_type_symbol
  _atom_site_label
  _atom_site_symmetry_multiplicity
  _atom_site_fract_x
  _atom_site_fract_y
  _atom_site_fract_z
  _atom_site_occupancy
  H   H1        1.0  0.016948726342692108  0.11594633059943606  0.29365399387715  1.0000
  H   H2        1.0  0.9830512742141051  0.8840536695502782  0.7063460060774762  1.0000
  H   H3        1.0  0.01990238494062538  0.2967501546952118  0.28859805151119994  1.0000
  H   H4        1.0  0.9800976156161719  0.7032498454545025  0.7114019484434264  1.0000
  H   H5        1.0  0.7497880223055273  0.8240619515566725  0.03917908043232604  1.0000
  H   H6        1.0  0.2502119782512701  0.17593804859304182  0.9608209195223002  1.0000
  H   H7        1.0  0.8979070951456708  0.9023884957256711  0.1963421959589944  1.0000
  H   H8        1.0  0.10209290541112645  0.09761150442404319  0.8036578039956318  1.0000
  H   H9        1.0  0.8852354704222564  0.47946684539991125  0.18677310267644442  1.0000
  H   H10       1.0  0.11476452876116232  0.5205331547546797  0.8132268972767884  1.0000
  H   H11       1.0  0.6448016014101899  0.6386362827388214  0.9457146781345955  1.0000
  H   H12       1.0  0.3551983991466073  0.36136371741089296  0.05428532182003085  1.0000
  H   H13       1.0  0.4905114526062094  0.5193479041423659  0.7902071105963028  1.0000
  H   H14       1.0  0.5094885479505878  0.4806520960073485  0.2097928893583235  1.0000
  H   H15       1.0  0.39805370476251034  0.6536229209892856  0.6546816254952416  1.0000
  H   H16       1.0  0.6019462957942869  0.3463770791604287  0.3453183744593848  1.0000
  H   H17       1.0  0.6125541342249076  0.029739688356910616  0.8376257082292423  1.0000
  H   H18       1.0  0.38744586620960314  0.9702603107710944  0.16237429172560255  1.0000
  H   H19       1.0  0.33378427322513887  0.8225750761816205  0.4334262812139738  1.0000
  H   H20       1.0  0.6662157273316582  0.17742492396809384  0.5665737187406525  1.0000
  H   H21       1.0  0.31437157149028017  0.6402658691437715  0.42709813610227154  1.0000
  H   H22       1.0  0.6856284290665172  0.3597341310059429  0.5729018638523548  1.0000
  H   H23       1.0  0.5268337148440466  0.7146642600605657  0.29735334371655836  1.0000
  H   H24       1.0  0.4731662843884366  0.28533574022692193  0.7026466569806475  1.0000
  H   H25       1.0  0.32521914786435835  0.6202597479916095  0.2394956633325053  1.0000
  H   H26       1.0  0.6747808513190604  0.37974025216298146  0.7605043366207276  1.0000
  H   H27       1.0  0.35241298381643094  0.8014714208716519  0.24607804838848746  1.0000
  H   H28       1.0  0.6475870153669879  0.19852857928293902  0.7539219515647455  1.0000
  H   H29       1.0  0.04637545477784764  0.833337173071734  0.5204728710328042  1.0000
  H   H30       1.0  0.9536245457789495  0.16666282707798036  0.4795271289218221  1.0000
  H   H31       1.0  0.03547563591118997  0.6515206584195432  0.5172005678648295  1.0000
  H   H32       1.0  0.9645243632722288  0.34847934173504785  0.48279943208840337  1.0000
  H   H33       1.0  0.7287001942337108  0.7359174067354082  0.5550992772796424  1.0000
  H   H34       1.0  0.2712998063230864  0.2640825934143061  0.4449007226749839  1.0000
  H   H35       1.0  0.7242246656627732  0.8138774201203784  0.4448058766755618  1.0000
  H   H36       1.0  0.2757753333983588  0.1861225790125034  0.5551941232778896  1.0000
  H   H37       1.0  0.7136091036348763  0.6309348839948233  0.43855498653389646  1.0000
  H   H38       1.0  0.286390896921921  0.36906511615489096  0.5614450134207297  1.0000
  C   C1        1.0  0.812265091815924  0.25623705113633305  0.027120144172635294  1.0000
  C   C2        1.0  0.18773490874087315  0.7437629490133812  0.972879855781991  1.0000
  C   C3        1.0  0.9123083335063985  0.17431467451838248  0.1652396996813445  1.0000
  C   C4        1.0  0.08769166705039876  0.8256853256313319  0.8347603002732819  1.0000
  C   C5        1.0  0.7851975069365216  0.028032276261455154  0.031073546462882726  1.0000
  C   C6        1.0  0.21480249224689715  0.9719677238931359  0.96892645349035  1.0000
  C   C7        1.0  0.6426789245383263  0.8412764959308462  0.9006113788615187  1.0000
  C   C8        1.0  0.3573210745228058  0.15872350320203563  0.09938862109193292  1.0000
  C   C9        1.0  0.6070933246974773  0.6968819849382277  0.886252740586302  1.0000
  C   C10       1.0  0.3929066744859415  0.3031180152163633  0.11374725936693095  1.0000
  C   C11       1.0  0.5208216612833388  0.6306355761871231  0.7987607010974799  1.0000
  C   C12       1.0  0.4791783392734584  0.3693644239625912  0.20123929885714634  1.0000
  C   C13       1.0  0.4684824111512975  0.7048512095549194  0.7228689251103412  1.0000
  C   C14       1.0  0.531517589283213  0.2951487895730857  0.2771310748445037  1.0000
  C   C15       1.0  0.5031503696754023  0.8476903116977802  0.7388450972398136  1.0000
  C   C16       1.0  0.49684963075910843  0.15230968743022502  0.2611549027150313  1.0000
  C   C17       1.0  0.5888164617474597  0.918298990513276  0.8258626508837712  1.0000
  C   C18       1.0  0.4111835388093376  0.08170100963643834  0.1741373490708551  1.0000
  C   C19       1.0  0.024466915595535  0.8448389375110644  0.3235101742529126  1.0000
  C   C20       1.0  0.9755330849612622  0.15516106263864995  0.6764898257017137  1.0000
  C   C21       1.0  0.07120350728662213  0.722654352418304  0.3752904753332965  1.0000
  C   C22       1.0  0.9287964917745101  0.27734564671457773  0.624709524620155  1.0000
  C   C23       1.0  0.0071917113296551686  0.5824572521268734  0.318038025087194  1.0000
  C   C24       1.0  0.9928082892271421  0.4175427480228411  0.6819619748674324  1.0000
  C   C25       1.0  0.8654400984300815  0.6902899827156563  0.1855135594091759  1.0000
  C   C26       1.0  0.1345599007533372  0.3097100174389347  0.8144864405440569  1.0000
  C   C27       1.0  0.2845928864806091  0.72652954402083  0.38661762392489213  1.0000
  C   C28       1.0  0.7154071127518742  0.2734704562666576  0.6133823767723139  1.0000
  C   C29       1.0  0.37700112239767153  0.7149520005726449  0.2870555384943463  1.0000
  C   C30       1.0  0.6229988766634605  0.2850479985602368  0.7129444614591053  1.0000
  C   C31       1.0  0.9871851978534398  0.7351973625986338  0.479621756861577  1.0000
  C   C32       1.0  0.012814802703357301  0.2648026375510805  0.5203782430930494  1.0000
  C   C33       1.0  0.7772995511218864  0.7284863901172544  0.4788584593251587  1.0000
  C   C34       1.0  0.22270044931262434  0.27151360901075067  0.5211415406296862  1.0000
  N   N1        1.0  0.8846623857597375  0.2878185743471558  0.11847687944842566  1.0000
  N   N2        1.0  0.11533761330139465  0.712181424785726  0.8815231205050259  1.0000
  N   N3        1.0  0.7609146711226367  0.1330893155749542  0.9775363443481582  1.0000
  N   N4        1.0  0.239085328060782  0.8669106845796367  0.022463655605074816  1.0000
  N   N5        1.0  0.863324973498007  0.04327091212274366  0.12376928219122076  1.0000
  N   N6        1.0  0.13667502568541187  0.9567290880318473  0.876230717762012  1.0000
  N   N7        1.0  0.9911270197433425  0.1970206987644162  0.2559594865750702  1.0000
  N   N8        1.0  0.008872979440076251  0.8029793013901747  0.7440405133781626  1.0000
  N   N9        1.0  0.7293246636617838  0.8966783861046265  0.992014007935637  1.0000
  N   N10       1.0  0.27067533689501333  0.10332161404508793  0.007985992018989287  1.0000
  N   N11       1.0  0.9263522426113058  0.8183210032001254  0.2342092448714112  1.0000
  N   N12       1.0  0.07364775657211306  0.18167899695446557  0.7657907550818216  1.0000
  N   N13       1.0  0.9124456759616121  0.5766371984935518  0.22830280441325884  1.0000
  N   N14       1.0  0.08755432459518515  0.4233628016561626  0.7716971955413675  1.0000
  O   O1        1.0  0.0723965045571105  0.9646404643967215  0.359850872798008  1.0000
  O   O2        1.0  0.9276034946263083  0.03535953575786941  0.6401491271552248  1.0000
  O   O3        1.0  0.042960873731040516  0.4754797142262953  0.350804044982418  1.0000
  O   O4        1.0  0.9570391254523782  0.5245202859282956  0.6491959549708148  1.0000
  O   O5        1.0  0.7718256024229938  0.6778678206853068  0.10712025412663781  1.0000
  O   O6        1.0  0.2281743968094893  0.32213217960218093  0.8928797465705681  1.0000
  Cl  Cl1       1.0  0.778878440811638  0.39459022059497967  0.9633220760985207  1.0000
  Cl  Cl2       1.0  0.22112155962287255  0.6054097785330255  0.03667792385632435  1.0000
  Br  Br1       1.0  0.4220704520165864  0.9499979648392449  0.6376857356839042  1.0000
  Br  Br2       1.0  0.5779295471668324  0.05000203531534597  0.3623142642693286  1.0000
