data_image0
_chemical_formula_structural       H108C108N4O16S4
_chemical_formula_sum              "H108 C108 N4 O16 S4"
_cell_length_a       9.248107456659437
_cell_length_b       23.55942381906022
_cell_length_c       10.123280640209577
_cell_angle_alpha    90.0
_cell_angle_beta     92.47662070790044
_cell_angle_gamma    90.0

_space_group_name_H-M_alt    "P 1"
_space_group_IT_number       1

loop_
  _space_group_symop_operation_xyz
  'x, y, z'

loop_
  _atom_site_type_symbol
  _atom_site_label
  _atom_site_symmetry_multiplicity
  _atom_site_fract_x
  _atom_site_fract_y
  _atom_site_fract_z
  _atom_site_occupancy
  H   H1        1.0  0.10972065521467432  0.12995232071520696  0.3139256359569329  1.0000
  H   H2        1.0  0.3902793440854282  0.6299523207351518  0.18607436354525256  1.0000
  H   H3        1.0  0.890279344482308  0.8700476793246829  0.6860743640651765  1.0000
  H   H4        1.0  0.6097206556115541  0.37004767930473786  0.8139256364768568  1.0000
  H   H5        1.0  0.015949133109690036  0.04050680854206338  0.4035661100323306  1.0000
  H   H6        1.0  0.4840508662049744  0.5405068085620083  0.09643389045816228  1.0000
  H   H7        1.0  0.9840508665872922  0.9594931914978264  0.5964338899897786  1.0000
  H   H8        1.0  0.5159491334920079  0.4594931914778815  0.9035661095639471  1.0000
  H   H9        1.0  0.1652494741673044  0.9524811184832755  0.40680960218187046  1.0000
  H   H10       1.0  0.33475052622957535  0.45248111846333056  0.09319039833805358  1.0000
  H   H11       1.0  0.8347505255296779  0.04751888155661428  0.5931903978402391  1.0000
  H   H12       1.0  0.6652494745496222  0.5475188815765591  0.9068096017134867  1.0000
  H   H13       1.0  0.412559821465274  0.953414498695325  0.3181996565233137  1.0000
  H   H14       1.0  0.08744017891704385  0.45341449867538014  0.18180034300830272  1.0000
  H   H15       1.0  0.5874401782317084  0.04658550134456472  0.6818003434987957  1.0000
  H   H16       1.0  0.9125598218621538  0.5465855013645096  0.8181996570432376  1.0000
  H   H17       1.0  0.262277816237149  0.20856520591240865  0.23639642722519655  1.0000
  H   H18       1.0  0.23772218307751536  0.7085652059323536  0.26360357326529643  1.0000
  H   H19       1.0  0.7377221834598332  0.7914347941274811  0.7636035727969128  1.0000
  H   H20       1.0  0.7622778166194669  0.29143479410753625  0.736396426756813  1.0000
  H   H21       1.0  0.4240354622960118  0.22415030734867317  0.14023693654747454  1.0000
  H   H22       1.0  0.07596453700409077  0.7241503073686181  0.35976306295471094  1.0000
  H   H23       1.0  0.5759645374009705  0.7758496926912165  0.8597630634746348  1.0000
  H   H24       1.0  0.9240354626928915  0.2758496926712717  0.6402369370673985  1.0000
  H   H25       1.0  0.7784632554479387  0.20090392474584742  0.9171697725880151  1.0000
  H   H26       1.0  0.7215367446459233  0.7009039247657922  0.5828302279540181  1.0000
  H   H27       1.0  0.22153674533125886  0.7990960752940424  0.08283022746352504  1.0000
  H   H28       1.0  0.2784632550510589  0.2990960752740975  0.4171697720680914  1.0000
  H   H29       1.0  0.6189142690437678  0.22503951075877743  0.8265812466375544  1.0000
  H   H30       1.0  0.8810857299678787  0.7250395107787223  0.6734187538750479  1.0000
  H   H31       1.0  0.38108573065321444  0.7749604892811123  0.17341875338455495  1.0000
  H   H32       1.0  0.11891426972910336  0.27496048926116745  0.32658124614706147  1.0000
  H   H33       1.0  0.7089376625021669  0.1617734677754115  0.7771347288591406  1.0000
  H   H34       1.0  0.7910623375916951  0.6617734677953564  0.7228652716828926  1.0000
  H   H35       1.0  0.29106233719481533  0.8382265322644783  0.22286527116296875  1.0000
  H   H36       1.0  0.20893766210528722  0.3382265322445334  0.27713472833921676  1.0000
  H   H37       1.0  0.38875719832430206  0.11059897347285544  0.9463078823385439  1.0000
  H   H38       1.0  0.11124280065371857  0.6105989734928003  0.5536921178266923  1.0000
  H   H39       1.0  0.6112428013726802  0.8894010265670343  0.05369211768356537  1.0000
  H   H40       1.0  0.8887571990432638  0.38940102654708947  0.4463078821954171  1.0000
  H   H41       1.0  0.46023200236314904  0.12401450232565774  0.7884887109594081  1.0000
  H   H42       1.0  0.03976799768252502  0.6240145023456026  0.7115112882469516  1.0000
  H   H43       1.0  0.5397679984160485  0.8759854977142321  0.2115112890921322  1.0000
  H   H44       1.0  0.9602320020144574  0.37598549769428713  0.2884887117751578  1.0000
  H   H45       1.0  0.38088177473727614  0.18079888254966295  0.8760583355157842  1.0000
  H   H46       1.0  0.11911822532295979  0.6807988825696079  0.6239416646788831  1.0000
  H   H47       1.0  0.6191182260419213  0.8192011174902268  0.12394166453575621  1.0000
  H   H48       1.0  0.8808817743740225  0.31920111747028196  0.37605833534322625  1.0000
  H   H49       1.0  0.6577922770115407  0.03182585600388886  0.965261185958842  1.0000
  H   H50       1.0  0.8422077230677594  0.5318258560238337  0.5347388135948836  1.0000
  H   H51       1.0  0.34220772376765685  0.9681741440360009  0.03473881409269823  1.0000
  H   H52       1.0  0.15779227662922293  0.468174144016056  0.46526118642722564  1.0000
  H   H53       1.0  0.8624673681707202  0.9671725834638399  0.9292475103196053  1.0000
  H   H54       1.0  0.6375326319231418  0.4671725834438951  0.570752490222428  1.0000
  H   H55       1.0  0.1375326315262621  0.0328274165760498  0.07075248970250407  1.0000
  H   H56       1.0  0.36246736885605574  0.5328274165959946  0.4292475098291123  1.0000
  H   H57       1.0  0.11216064768894553  0.920108409122575  0.14626321185066207  1.0000
  H   H58       1.0  0.38783935269337233  0.42010840910263014  0.35373678768095435  1.0000
  H   H59       1.0  0.8878393520080365  0.07989159091731474  0.8537367881714473  1.0000
  H   H60       1.0  0.6121606480712632  0.5798915909372596  0.6462632113822786  1.0000
  H   H61       1.0  0.0187931363939844  0.8915301253253588  0.005288969092436834  1.0000
  H   H62       1.0  0.4812068629061181  0.39153012530541387  0.49471103040974856  1.0000
  H   H63       1.0  0.981206863302998  0.10846987471453103  0.9947110309296726  1.0000
  H   H64       1.0  0.5187931367908641  0.6084698747344759  0.5052889696123607  1.0000
  H   H65       1.0  0.9984927988216458  0.8609803484917795  0.165350736041015  1.0000
  H   H66       1.0  0.5015072016088599  0.36098034847183463  0.334649264826275  1.0000
  H   H67       1.0  0.0015072008753363585  0.13901965154811022  0.8346492639810944  1.0000
  H   H68       1.0  0.4984927991703378  0.6390196515680551  0.6653507352252654  1.0000
  H   H69       1.0  0.8814550285708838  0.9239926123485456  0.3423489712027317  1.0000
  H   H70       1.0  0.6185449707628448  0.42399261232860064  0.1576510286468198  1.0000
  H   H71       1.0  0.11854497112609842  0.07600738769134424  0.6576510288193776  1.0000
  H   H72       1.0  0.38145502893413746  0.5760073877112891  0.8423489713752896  1.0000
  H   H73       1.0  0.6753493212779049  0.9885579837974589  0.3789191750913947  1.0000
  H   H74       1.0  0.824650679138039  0.488557983777514  0.12108082478758771  1.0000
  H   H75       1.0  0.3246506795012927  0.01144201624243088  0.6210808249601456  1.0000
  H   H76       1.0  0.1753493205589432  0.5114420162623757  0.8789191752345218  1.0000
  H   H77       1.0  0.6879968599434042  0.2710569014354925  0.4899303946367739  1.0000
  H   H78       1.0  0.8120031393903245  0.7710569014554374  0.010069605212777683  1.0000
  H   H79       1.0  0.3120031397535781  0.7289430981799387  0.5100696053853356  1.0000
  H   H80       1.0  0.18799686030665783  0.2289430981599938  0.9899303948093318  1.0000
  H   H81       1.0  0.4428261676898806  0.2870196496286697  0.57458155290136  1.0000
  H   H82       1.0  0.057173832370355414  0.7870196496486146  0.9254184472933072  1.0000
  H   H83       1.0  0.5571738320071018  0.7129803504112201  0.42541844712074944  1.0000
  H   H84       1.0  0.9428261673266269  0.2129803503912752  0.07458155272880211  1.0000
  H   H85       1.0  0.3588501817352393  0.10774849416929672  0.5546543054424508  1.0000
  H   H86       1.0  0.14114981832499665  0.6077484937647829  0.9453456947522165  1.0000
  H   H87       1.0  0.6411498190439583  0.8922515058705931  0.4453456946090896  1.0000
  H   H88       1.0  0.8588501813719857  0.3922515058506482  0.054654305269892914  1.0000
  H   H89       1.0  0.6066700474640738  0.09147838107383603  0.47670920902963254  1.0000
  H   H90       1.0  0.8933299518696547  0.5914783810937809  0.023290790819919038  1.0000
  H   H91       1.0  0.3933299522329084  0.9085216189660538  0.5232907909924769  1.0000
  H   H92       1.0  0.1066700478273275  0.4085216189461089  0.9767092092021904  1.0000
  H   H93       1.0  0.23249092675120098  0.24425948886510376  0.6881330946858407  1.0000
  H   H94       1.0  0.267509073309035  0.7442594888850487  0.8118669055088267  1.0000
  H   H95       1.0  0.7675090729457813  0.755740511174786  0.31186690533626865  1.0000
  H   H96       1.0  0.7324909274701625  0.25574051115484114  0.18813309454271382  1.0000
  H   H97       1.0  0.19788311956191174  0.17001040987936064  0.6748586242822853  1.0000
  H   H98       1.0  0.3021168804983242  0.6700104098993055  0.825141375912382  1.0000
  H   H99       1.0  0.8021168801350705  0.8299895897360706  0.3251413757398242  1.0000
  H   H100      1.0  0.6978831202808733  0.32998958971612563  0.1748586241391583  1.0000
  H   H101      1.0  0.15370001627549978  0.21432015183304318  0.5404361428324602  1.0000
  H   H102      1.0  0.34629998378473614  0.7143201518529881  0.9595638573622071  1.0000
  H   H103      1.0  0.8462999834214825  0.785679847782388  0.4595638571896491  1.0000
  H   H104      1.0  0.6537000169944615  0.28567984776244315  0.040436142689333356  1.0000
  H   H105      1.0  0.7862979125134089  0.13630911115075395  0.21326182179359462  1.0000
  H   H106      1.0  0.7137020879025351  0.6363091111706989  0.2867381780853879  1.0000
  H   H107      1.0  0.21370208826578868  0.8636908888891358  0.7867381782579457  1.0000
  H   H108      1.0  0.28629791179444725  0.36369088886919093  0.7132618219367216  1.0000
  C   C1        1.0  0.5334644439458884  0.05487607082113995  0.19640934848809702  1.0000
  C   C2        1.0  0.9665355553878401  0.5548760704166262  0.3035906513614545  1.0000
  C   C3        1.0  0.4665355557510938  0.9451239292187498  0.8035906515340124  1.0000
  C   C4        1.0  0.033464444309142104  0.4451239291988049  0.6964093486606548  1.0000
  C   C5        1.0  0.5243037641013646  0.1100045221778  0.15067755542581526  1.0000
  C   C6        1.0  0.9756962352323639  0.6100045221977449  0.3493224444237363  1.0000
  C   C7        1.0  0.4756962355956175  0.8899954778620897  0.8493224445962941  1.0000
  C   C8        1.0  0.02430376446461838  0.38999547784214483  0.650677555598373  1.0000
  C   C9        1.0  0.39333203434878716  0.13747673435797964  0.1975834297167869  1.0000
  C   C10       1.0  0.10666796604809256  0.6374767343779245  0.30241657080313705  1.0000
  C   C11       1.0  0.6066679664304104  0.8625232656819102  0.8024165703347534  1.0000
  C   C12       1.0  0.8933320336488897  0.36252326566196524  0.6975834292189724  1.0000
  C   C13       1.0  0.31474491924001646  0.09247361933518224  0.2653091240719412  1.0000
  C   C14       1.0  0.18525508114230135  0.5924736193551271  0.23469087545967524  1.0000
  C   C15       1.0  0.6852550815391811  0.9075263807047076  0.7346908759795991  1.0000
  C   C16       1.0  0.8147449185546809  0.4075263806847626  0.7653091245624342  1.0000
  C   C17       1.0  0.1777073530179457  0.09219957995079046  0.3161839272091748  1.0000
  C   C18       1.0  0.32229264628215676  0.5921995799707354  0.18381607229301064  1.0000
  C   C19       1.0  0.8222926466790365  0.9078004200890993  0.6838160728129346  1.0000
  C   C20       1.0  0.6777073534148255  0.4078004200691544  0.8161839277290988  1.0000
  C   C21       1.0  0.1251071771711688  0.04135159575557317  0.36730568191932883  1.0000
  C   C22       1.0  0.3748928221289337  0.5413515957755181  0.13269431758285666  1.0000
  C   C23       1.0  0.8748928225112514  0.9586484042843166  0.6326943171144731  1.0000
  C   C24       1.0  0.6251071775680486  0.4586484042643717  0.8673056824392528  1.0000
  C   C25       1.0  0.20934381949647005  0.9919089995356336  0.3686365540028957  1.0000
  C   C26       1.0  0.2906561809004097  0.4919089995156888  0.13136344651702825  1.0000
  C   C27       1.0  0.7906561802005123  0.008091000504256124  0.6313634460192137  1.0000
  C   C28       1.0  0.7093438198787879  0.5080910000997424  0.868636553534512  1.0000
  C   C29       1.0  0.34843230574815737  0.9922404643481849  0.318507508928043  1.0000
  C   C30       1.0  0.15156769464872233  0.49224046432824  0.18149249159188088  1.0000
  C   C31       1.0  0.6515676939488249  0.007759535691704886  0.6814924910940664  1.0000
  C   C32       1.0  0.8484323061304753  0.5077595357116498  0.8185075084596595  1.0000
  C   C33       1.0  0.40102797369489646  0.042704006588906995  0.2666433979183156  1.0000
  C   C34       1.0  0.09897202561976795  0.5427040066088519  0.2333566025721774  1.0000
  C   C35       1.0  0.5989720260020859  0.9572959934509827  0.7333566021037938  1.0000
  C   C36       1.0  0.9010279740772142  0.4572959934310379  0.766643397449932  1.0000
  C   C37       1.0  0.35873025823338384  0.1929967020806952  0.19041229033286033  1.0000
  C   C38       1.0  0.14126974216349591  0.69299670210064  0.3095877101870636  1.0000
  C   C39       1.0  0.6412697414635985  0.8070032979591946  0.8095877096892492  1.0000
  C   C40       1.0  0.8587302586157016  0.30700329793924963  0.6904122898644767  1.0000
  C   C41       1.0  0.6286026664864358  0.13834552937424147  0.06758477045405735  1.0000
  C   C42       1.0  0.8713973328472928  0.6383455293941864  0.43241522939549415  1.0000
  C   C43       1.0  0.3713973332105464  0.8616544706656483  0.932415229568052  1.0000
  C   C44       1.0  0.1286026668496895  0.3616544706457034  0.5675847706266153  1.0000
  C   C45       1.0  0.6802049218784919  0.18779782833315864  0.8621657490049612  1.0000
  C   C46       1.0  0.8197950782008081  0.6877978283531035  0.6378342505487645  1.0000
  C   C47       1.0  0.3197950778184903  0.8122021717067311  0.137834251017148  1.0000
  C   C48       1.0  0.18020492257838938  0.31220217168678627  0.3621657495027759  1.0000
  C   C49       1.0  0.444589068309117  0.1416994301575057  0.8869659756594006  1.0000
  C   C50       1.0  0.055410931751119004  0.6416994301774506  0.6130340245352667  1.0000
  C   C51       1.0  0.5554109324700807  0.858300569882384  0.11303402439213983  1.0000
  C   C52       1.0  0.9445890679458632  0.3583005698624392  0.38696597548684264  1.0000
  C   C53       1.0  0.6508694867107345  0.014768271612759624  0.17438404462002913  1.0000
  C   C54       1.0  0.8491305126229941  0.5147682716327046  0.3256159552295224  1.0000
  C   C55       1.0  0.34913051298624787  0.9852317284271301  0.8256159554020803  1.0000
  C   C56       1.0  0.15086948707398812  0.48523172840718526  0.674384044792587  1.0000
  C   C57       1.0  0.7070192170922439  0.00853510813950038  0.04855217101064297  1.0000
  C   C58       1.0  0.7929807822414847  0.5085351081594452  0.45144782883890855  1.0000
  C   C59       1.0  0.29298078260473837  0.9914648919003893  0.9514478290114665  1.0000
  C   C60       1.0  0.20701921745549756  0.4914648918804445  0.5485521711832008  1.0000
  C   C61       1.0  0.8218452676439728  0.9718121765557376  0.028160836002505584  1.0000
  C   C62       1.0  0.6781547317043176  0.4718121765357927  0.4718391648353534  1.0000
  C   C63       1.0  0.17815473205300944  0.028187823484152184  0.9718391640196038  1.0000
  C   C64       1.0  0.3218452679926646  0.528187823504097  0.5281608351867559  1.0000
  C   C65       1.0  0.8855342256533089  0.94037032782085  0.13289134710260408  1.0000
  C   C66       1.0  0.6144657736804199  0.44037032780090507  0.36710865274694743  1.0000
  C   C67       1.0  0.11446577402911162  0.05962967221903981  0.8671086519311978  1.0000
  C   C68       1.0  0.3855342260165624  0.5596296722389847  0.6328913472751619  1.0000
  C   C69       1.0  0.00926164518778928  0.9008860914004574  0.1105633454562716  1.0000
  C   C70       1.0  0.49073835412687516  0.40088609138051257  0.38943665503422137  1.0000
  C   C71       1.0  0.990738354509193  0.0991139086394323  0.8894366545658379  1.0000
  C   C72       1.0  0.509261645570107  0.5991139086593772  0.610563344987888  1.0000
  C   C73       1.0  0.8305730473133438  0.9471265312502064  0.2592013049840639  1.0000
  C   C74       1.0  0.6694269520203847  0.4471265312302617  0.24079869486548763  1.0000
  C   C75       1.0  0.1694269523836384  0.05287346878968322  0.7407986950380454  1.0000
  C   C76       1.0  0.33057304766203566  0.5528734688096281  0.7592013041683143  1.0000
  C   C77       1.0  0.7142074790003827  0.9830942096836005  0.279559109623592  1.0000
  C   C78       1.0  0.785792521430123  0.4830942096636556  0.22044089124369795  1.0000
  C   C79       1.0  0.2857925206965995  0.01690579035628927  0.7204408903985173  1.0000
  C   C80       1.0  0.21420747934907455  0.5169057903762342  0.7795591088078424  1.0000
  C   C81       1.0  0.662794871877747  0.18022618942679106  0.48228071017849544  1.0000
  C   C82       1.0  0.8372051274559816  0.6802261894467359  0.017719289671056102  1.0000
  C   C83       1.0  0.33720512781923534  0.8197738106130986  0.517719289843614  1.0000
  C   C84       1.0  0.16279487224100067  0.31977381059315385  0.9822807103510534  1.0000
  C   C85       1.0  0.6157803841426366  0.2353839297000774  0.5056498550029846  1.0000
  C   C86       1.0  0.8842196159512253  0.7353839297200223  0.9943501455390487  1.0000
  C   C87       1.0  0.38421961555434575  0.7646160703398124  0.49435014501912466  1.0000
  C   C88       1.0  0.11578038374575678  0.26461607031986745  0.005649854483060769  1.0000
  C   C89       1.0  0.4773992642095392  0.24410689472580685  0.5515729027787143  1.0000
  C   C90       1.0  0.022600735850696684  0.7441068947457516  0.9484270974159529  1.0000
  C   C91       1.0  0.522600735487443  0.7558931053140829  0.44842709724339513  1.0000
  C   C92       1.0  0.9773992638462855  0.255893105294138  0.051572902606156414  1.0000
  C   C93       1.0  0.38312460031884843  0.19854154693782258  0.5713187681461165  1.0000
  C   C94       1.0  0.1168753997413875  0.6985415469577674  0.9286812320485508  1.0000
  C   C95       1.0  0.6168753993781338  0.8014584531020671  0.42868123187599294  1.0000
  C   C96       1.0  0.8831245999555948  0.30145845308212227  0.07131876797355857  1.0000
  C   C97       1.0  0.4313921796126005  0.14361991303295682  0.5423640616293244  1.0000
  C   C98       1.0  0.06860782043307358  0.6436199130529017  0.9576359375770354  1.0000
  C   C99       1.0  0.5686078200843818  0.8563800870069329  0.4576359383927851  1.0000
  C   C100      1.0  0.9313921792493468  0.3563800869869881  0.04236406145676647  1.0000
  C   C101      1.0  0.5699679406517117  0.13421044055593243  0.4989684510934169  1.0000
  C   C102      1.0  0.9300320586965788  0.6342104405758773  0.0010315497444420777  1.0000
  C   C103      1.0  0.43003205904527053  0.8657895594839573  0.5010315489286925  1.0000
  C   C104      1.0  0.06996794100040352  0.3657895594640125  0.9989684502776673  1.0000
  C   C105      1.0  0.23461050307143383  0.20753453214948092  0.6217685968813759  1.0000
  C   C106      1.0  0.2653894969742402  0.7075345321694257  0.878231402324984  1.0000
  C   C107      1.0  0.7653894977077638  0.7924654674659501  0.37823140317016446  1.0000
  C   C108      1.0  0.7346105027081803  0.2924654674460054  0.12176859670881797  1.0000
  N   N1        1.0  0.5866169703014074  0.15542641781576758  0.9471583606466377  1.0000
  N   N2        1.0  0.9133830297924544  0.6554264178357124  0.5528416398953956  1.0000
  N   N3        1.0  0.4133830304777901  0.8445735822241222  0.05284163940490266  1.0000
  N   N4        1.0  0.08661696990452765  0.34457358220417733  0.4471583601267138  1.0000
  O   O1        1.0  0.7612413033024332  0.14759980450738847  0.10916707093112828  1.0000
  O   O2        1.0  0.7387586971280726  0.6475998045273333  0.3908329299361617  1.0000
  O   O3        1.0  0.23875869639454914  0.8524001955325012  0.8908329290909812  1.0000
  O   O4        1.0  0.2612413036511249  0.35240019551255636  0.6091670701153787  1.0000
  O   O5        1.0  0.9133917945136502  0.14147220600970337  0.5633186657414353  1.0000
  O   O6        1.0  0.5866082044834345  0.6414722060296483  0.9366813337828594  1.0000
  O   O7        1.0  0.0866082051833321  0.8585277940301864  0.436681334280674  1.0000
  O   O8        1.0  0.41339179521354763  0.35852779401024154  0.06331866623924988  1.0000
  O   O9        1.0  0.9086459113209849  0.2186170451177635  0.39763914010468754  1.0000
  O   O10       1.0  0.5913540890949591  0.7186170451377084  0.10236085977429495  1.0000
  O   O11       1.0  0.0913540883759975  0.7813829549221262  0.6023608599174218  1.0000
  O   O12       1.0  0.4086459116696765  0.2813829549021814  0.8976391392889379  1.0000
  O   O13       1.0  0.8323326172908875  0.12145735574759668  0.3367927714107456  1.0000
  O   O14       1.0  0.6676673831250564  0.6214573557675416  0.16320722846823685  1.0000
  O   O15       1.0  0.16766738348831012  0.8785426438678345  0.6632072286407947  1.0000
  O   O16       1.0  0.33233261657192575  0.3785426438478896  0.8367927715538725  1.0000
  S   S1        1.0  0.8446992230150451  0.16585389863561892  0.4438480777360657  1.0000
  S   S2        1.0  0.6553007774008989  0.6658538986555638  0.05615192214291676  1.0000
  S   S3        1.0  0.1553007777641525  0.8341461014042708  0.5561519223154747  1.0000
  S   S4        1.0  0.3446992222960834  0.33414610138432593  0.9438480778791927  1.0000
