data_image0
_chemical_formula_structural       H108C44N16O16Cl4Br8
_chemical_formula_sum              "H108 C44 N16 O16 Cl4 Br8"
_cell_length_a       17.55798531789243
_cell_length_b       8.611307262203281
_cell_length_c       11.695728204987871
_cell_angle_alpha    90.0
_cell_angle_beta     90.0
_cell_angle_gamma    90.0

_space_group_name_H-M_alt    "P 1"
_space_group_IT_number       1

loop_
  _space_group_symop_operation_xyz
  'x, y, z'

loop_
  _atom_site_type_symbol
  _atom_site_label
  _atom_site_symmetry_multiplicity
  _atom_site_fract_x
  _atom_site_fract_y
  _atom_site_fract_z
  _atom_site_occupancy
  H   H1        1.0  0.5310672051022799  0.25000000051666715  0.2791447315446047  1.0000
  H   H2        1.0  0.9689327945082308  0.7500000003887376  0.77914473133137  1.0000
  H   H3        1.0  0.031067205042262572  0.25000000051666715  0.22085526824216062  1.0000
  H   H4        1.0  0.46893279444821334  0.7500000003887376  0.720855268883939  1.0000
  H   H5        1.0  0.5678520587347653  0.25000000051666715  0.1440250808223828  1.0000
  H   H6        1.0  0.9321479414452868  0.7500000003887376  0.6440250806091481  1.0000
  H   H7        1.0  0.06785205867474793  0.25000000051666715  0.3559749189643825  1.0000
  H   H8        1.0  0.43214794138526946  0.7500000003887376  0.8559749187511478  1.0000
  H   H9        1.0  0.4468997603047245  0.12127947339470353  0.07838981668614714  1.0000
  H   H10       1.0  0.053100239755292857  0.8787205275107013  0.5783898164729124  1.0000
  H   H11       1.0  0.9468997603647418  0.3787205264773669  0.4216101839556312  1.0000
  H   H12       1.0  0.5531002398153102  0.621279473266774  0.9216101837423966  1.0000
  H   H13       1.0  0.5531002398153102  0.8787205275107013  0.9216101837423966  1.0000
  H   H14       1.0  0.9468997603647418  0.12127947339470353  0.4216101839556312  1.0000
  H   H15       1.0  0.053100239755292857  0.621279473266774  0.5783898164729124  1.0000
  H   H16       1.0  0.4468997603047245  0.3787205264773669  0.07838981668614714  1.0000
  H   H17       1.0  0.5244847836053087  0.019214764374539863  0.13660977683446918  1.0000
  H   H18       1.0  0.9755152165747434  0.980785236530865  0.6366097774762475  1.0000
  H   H19       1.0  0.024484783545291367  0.4807852354975306  0.36339022295229606  1.0000
  H   H20       1.0  0.47551521651472606  0.5192147642466103  0.8633902227390614  1.0000
  H   H21       1.0  0.47551521651472606  0.980785236530865  0.8633902227390614  1.0000
  H   H22       1.0  0.024484783545291367  0.019214764374539863  0.36339022295229606  1.0000
  H   H23       1.0  0.9755152165747434  0.5192147642466103  0.6366097774762475  1.0000
  H   H24       1.0  0.5244847836053087  0.4807852354975306  0.13660977683446918  1.0000
  H   H25       1.0  0.41695813257911796  0.9043651402594859  0.21720744834995373  1.0000
  H   H26       1.0  0.08304186748089937  0.09563485948465501  0.717207448136719  1.0000
  H   H27       1.0  0.916958132069594  0.5956348593567254  0.28279255143681153  1.0000
  H   H28       1.0  0.5830418675409167  0.4043651403874155  0.7827925520785899  1.0000
  H   H29       1.0  0.5830418675409167  0.09563485948465501  0.7827925520785899  1.0000
  H   H30       1.0  0.916958132069594  0.9043651402594859  0.28279255143681153  1.0000
  H   H31       1.0  0.08304186748089937  0.4043651403874155  0.717207448136719  1.0000
  H   H32       1.0  0.41695813257911796  0.5956348593567254  0.21720744834995373  1.0000
  H   H33       1.0  0.4633829339012462  0.008743560960886614  0.32850686700819964  1.0000
  H   H34       1.0  0.03661706615877117  0.9912564387832543  0.8285068676499779  1.0000
  H   H35       1.0  0.9633829339612635  0.49125643891118387  0.17149313277856562  1.0000
  H   H36       1.0  0.5366170662187886  0.508743561994221  0.6714931325653309  1.0000
  H   H37       1.0  0.5366170662187886  0.9912564387832543  0.6714931325653309  1.0000
  H   H38       1.0  0.9633829339612635  0.008743560960886614  0.17149313277856562  1.0000
  H   H39       1.0  0.03661706615877117  0.508743561994221  0.8285068676499779  1.0000
  H   H40       1.0  0.4633829339012462  0.49125643891118387  0.32850686700819964  1.0000
  H   H41       1.0  0.32962757715158586  0.91198406593503  0.38350999881196807  1.0000
  H   H42       1.0  0.17037242290843146  0.0880159338091109  0.8835099994537464  1.0000
  H   H43       1.0  0.8296275772116033  0.5880159336811813  0.11649000097479718  1.0000
  H   H44       1.0  0.6703724229684489  0.41198406606295956  0.6164900007615625  1.0000
  H   H45       1.0  0.6703724229684489  0.0880159338091109  0.6164900007615625  1.0000
  H   H46       1.0  0.8296275772116033  0.91198406593503  0.11649000097479718  1.0000
  H   H47       1.0  0.17037242290843146  0.41198406606295956  0.8835099994537464  1.0000
  H   H48       1.0  0.32962757715158586  0.5880159336811813  0.38350999881196807  1.0000
  H   H49       1.0  0.2622528164041497  0.06385931929449001  0.38303922350807107  1.0000
  H   H50       1.0  0.2377471836558677  0.936140680449651  0.8830392241498495  1.0000
  H   H51       1.0  0.7622528164641671  0.4361406805775805  0.1169607762786942  1.0000
  H   H52       1.0  0.737747183715885  0.5638593191665604  0.6169607760654595  1.0000
  H   H53       1.0  0.737747183715885  0.936140680449651  0.6169607760654595  1.0000
  H   H54       1.0  0.7622528164641671  0.06385931929449001  0.1169607762786942  1.0000
  H   H55       1.0  0.2377471836558677  0.5638593191665604  0.8830392241498495  1.0000
  H   H56       1.0  0.2622528164041497  0.4361406805775805  0.38303922350807107  1.0000
  H   H57       1.0  0.42086076085675833  0.11371811040794834  0.4889511520591916  1.0000
  H   H58       1.0  0.07913923920325908  0.8862818893361927  0.9889511527009699  1.0000
  H   H59       1.0  0.9208607609167757  0.3862818894641221  0.011048847727573712  1.0000
  H   H60       1.0  0.5791392392632765  0.6137181102800189  0.511048847514339  1.0000
  H   H61       1.0  0.5791392392632765  0.8862818893361927  0.511048847514339  1.0000
  H   H62       1.0  0.9208607609167757  0.11371811040794834  0.011048847727573712  1.0000
  H   H63       1.0  0.07913923920325908  0.6137181102800189  0.9889511527009699  1.0000
  H   H64       1.0  0.42086076085675833  0.3862818894641221  0.4889511520591916  1.0000
  H   H65       1.0  0.348012930832856  0.014148441843988621  0.5617770732050638  1.0000
  H   H66       1.0  0.15198706865761993  0.9858515579001523  0.06177707341829849  1.0000
  H   H67       1.0  0.8480129308928734  0.48585155802808183  0.9382229270102452  1.0000
  H   H68       1.0  0.6519870687176373  0.514148442877323  0.4382229263684668  1.0000
  H   H69       1.0  0.6519870687176373  0.9858515579001523  0.4382229263684668  1.0000
  H   H70       1.0  0.8480129308928734  0.014148441843988621  0.9382229270102452  1.0000
  H   H71       1.0  0.15198706865761993  0.514148442877323  0.06177707341829849  1.0000
  H   H72       1.0  0.348012930832856  0.48585155802808183  0.5617770732050638  1.0000
  H   H73       1.0  0.2661081209151416  0.25000000051666715  0.5247383456963948  1.0000
  H   H74       1.0  0.23389187914487578  0.7500000003887376  0.0247383459096295  1.0000
  H   H75       1.0  0.7661081204056175  0.25000000051666715  0.9752616545189141  1.0000
  H   H76       1.0  0.7338918792048932  0.7500000003887376  0.4752616538771358  1.0000
  H   H77       1.0  0.3345945063533736  0.25000000051666715  0.6236339672197063  1.0000
  H   H78       1.0  0.16540549313710232  0.7500000003887376  0.12363396743294101  1.0000
  H   H79       1.0  0.8345945064133911  0.25000000051666715  0.8763660329956026  1.0000
  H   H80       1.0  0.6654054931971197  0.7500000003887376  0.37636603320883727  1.0000
  H   H81       1.0  0.3316936353776987  0.1018758224840695  0.10102505113756834  1.0000
  H   H82       1.0  0.16830636468231863  0.8981241784213353  0.6010250509243337  1.0000
  H   H83       1.0  0.8316936354377161  0.39812417738800093  0.39897494950421  1.0000
  H   H84       1.0  0.6683063647423361  0.6018758223561399  0.8989749492909752  1.0000
  H   H85       1.0  0.6683063647423361  0.8981241784213353  0.8989749492909752  1.0000
  H   H86       1.0  0.8316936354377161  0.1018758224840695  0.39897494950421  1.0000
  H   H87       1.0  0.16830636468231863  0.6018758223561399  0.6010250509243337  1.0000
  H   H88       1.0  0.3316936353776987  0.39812417738800093  0.10102505113756834  1.0000
  H   H89       1.0  0.2666808796809068  0.9972500119340507  0.18733398481897026  1.0000
  H   H90       1.0  0.23331911980956913  0.0027499878100901726  0.6873339854607485  1.0000
  H   H91       1.0  0.7666808797409242  0.5027499876821606  0.312666014967795  1.0000
  H   H92       1.0  0.7333191198695864  0.49725001206198033  0.8126660147545604  1.0000
  H   H93       1.0  0.7333191198695864  0.0027499878100901726  0.8126660147545604  1.0000
  H   H94       1.0  0.7666808797409242  0.9972500119340507  0.312666014967795  1.0000
  H   H95       1.0  0.23331911980956913  0.49725001206198033  0.6873339854607485  1.0000
  H   H96       1.0  0.2666808796809068  0.5027499876821606  0.18733398481897026  1.0000
  H   H97       1.0  0.2188259336385634  0.25000000051666715  0.2705853038419921  1.0000
  H   H98       1.0  0.2811740664214539  0.7500000003887376  0.7705853044837705  1.0000
  H   H99       1.0  0.7188259331290393  0.25000000051666715  0.22941469594477315  1.0000
  H   H100      1.0  0.7811740664814714  0.7500000003887376  0.7294146957315384  1.0000
  H   H101      1.0  0.21033359996244105  0.25000000051666715  0.12114373172555008  1.0000
  H   H102      1.0  0.2896664000975763  0.7500000003887376  0.6211437323673284  1.0000
  H   H103      1.0  0.7103336000224584  0.25000000051666715  0.37885626806121525  1.0000
  H   H104      1.0  0.7896663995880523  0.7500000003887376  0.8788562678479805  1.0000
  H   H105      1.0  0.36796767300039623  0.25000000051666715  0.2890728307586818  1.0000
  H   H106      1.0  0.13203232705962115  0.7500000003887376  0.7890728305454471  1.0000
  H   H107      1.0  0.8679676724908721  0.25000000051666715  0.21092716902808348  1.0000
  H   H108      1.0  0.6320323271196385  0.7500000003887376  0.7109271688148487  1.0000
  C   C1        1.0  0.47830904673566893  0.09987396150348833  0.15787048635522863  1.0000
  C   C2        1.0  0.021690953324348443  0.9001260394019165  0.6578704869970069  1.0000
  C   C3        1.0  0.9783090467956864  0.40012603952984604  0.3421295134315367  1.0000
  C   C4        1.0  0.5216909533843659  0.5998739613755588  0.8421295132183021  1.0000
  C   C5        1.0  0.5216909533843659  0.9001260394019165  0.8421295132183021  1.0000
  C   C6        1.0  0.9783090467956864  0.09987396150348833  0.3421295134315367  1.0000
  C   C7        1.0  0.021690953324348443  0.5998739613755588  0.6578704869970069  1.0000
  C   C8        1.0  0.47830904673566893  0.40012603952984604  0.15787048635522863  1.0000
  C   C9        1.0  0.43036867574434395  0.021540196436161178  0.24931730619017273  1.0000
  C   C10       1.0  0.06963132431567341  0.9784598033079798  0.749317305976938  1.0000
  C   C11       1.0  0.9303686758043614  0.4784598034359093  0.2506826944516056  1.0000
  C   C12       1.0  0.5696313243756908  0.5215401974694955  0.7506826942383709  1.0000
  C   C13       1.0  0.5696313243756908  0.9784598033079798  0.7506826942383709  1.0000
  C   C14       1.0  0.9303686758043614  0.021540196436161178  0.2506826944516056  1.0000
  C   C15       1.0  0.06963132431567341  0.5215401974694955  0.749317305976938  1.0000
  C   C16       1.0  0.43036867574434395  0.4784598034359093  0.24931730619017273  1.0000
  C   C17       1.0  0.323591835118472  0.039038332945744596  0.38422333960219285  1.0000
  C   C18       1.0  0.17640816494154538  0.9609616667983965  0.8842233393889581  1.0000
  C   C19       1.0  0.8235918351784893  0.4609616669263259  0.11577666018457243  1.0000
  C   C20       1.0  0.6764081650015628  0.5390383339790789  0.6157766599713377  1.0000
  C   C21       1.0  0.6764081650015628  0.9609616667983965  0.6157766599713377  1.0000
  C   C22       1.0  0.8235918351784893  0.039038332945744596  0.11577666018457243  1.0000
  C   C23       1.0  0.17640816494154538  0.5390383339790789  0.8842233393889581  1.0000
  C   C24       1.0  0.323591835118472  0.4609616669263259  0.38422333960219285  1.0000
  C   C25       1.0  0.3587317568594511  0.09921278546753497  0.4940246189660828  1.0000
  C   C26       1.0  0.14126824320056627  0.9007872154378699  0.994024618752848  1.0000
  C   C27       1.0  0.8587317569194685  0.4007872144045355  0.0059753808206825096  1.0000
  C   C28       1.0  0.6412682432605836  0.5992127853396054  0.5059753806074478  1.0000
  C   C29       1.0  0.6412682432605836  0.9007872154378699  0.5059753806074478  1.0000
  C   C30       1.0  0.8587317569194685  0.09921278546753497  0.0059753808206825096  1.0000
  C   C31       1.0  0.14126824320056627  0.5992127853396054  0.994024618752848  1.0000
  C   C32       1.0  0.3587317568594511  0.4007872144045355  0.4940246189660828  1.0000
  C   C33       1.0  0.301108017479229  0.10356801387340238  0.1826567822505427  1.0000
  C   C34       1.0  0.19889198258078838  0.8964319858707386  0.682656782892321  1.0000
  C   C35       1.0  0.8011080175392463  0.3964319859986681  0.3173432175362226  1.0000
  C   C36       1.0  0.6988919826408058  0.6035680137454729  0.8173432173229879  1.0000
  C   C37       1.0  0.6988919826408058  0.8964319858707386  0.8173432173229879  1.0000
  C   C38       1.0  0.8011080175392463  0.10356801387340238  0.3173432175362226  1.0000
  C   C39       1.0  0.19889198258078838  0.6035680137454729  0.682656782892321  1.0000
  C   C40       1.0  0.301108017479229  0.3964319859986681  0.1826567822505427  1.0000
  C   C41       1.0  0.2523611097615309  0.25000000051666715  0.19082152311373027  1.0000
  C   C42       1.0  0.24763889029848649  0.7500000003887376  0.6908215229004956  1.0000
  C   C43       1.0  0.7523611098215482  0.25000000051666715  0.30917847752804806  1.0000
  C   C44       1.0  0.7476388903585038  0.7500000003887376  0.8091784773148134  1.0000
  N   N1        1.0  0.5164206214912356  0.25000000051666715  0.19077046259064584  1.0000
  N   N2        1.0  0.9835793786888164  0.7500000003887376  0.6907704623774111  1.0000
  N   N3        1.0  0.01642062143121826  0.25000000051666715  0.30922953719611945  1.0000
  N   N4        1.0  0.48357937862879913  0.7500000003887376  0.8092295378378977  1.0000
  N   N5        1.0  0.35824642384169786  0.10252783498682201  0.27802490473515346  1.0000
  N   N6        1.0  0.14175357621831952  0.897472164757319  0.7780249045219189  1.0000
  N   N7        1.0  0.8582464239017151  0.39747216488524845  0.22197509590662487  1.0000
  N   N8        1.0  0.641753576278337  0.6025278348588925  0.7219750956933901  1.0000
  N   N9        1.0  0.641753576278337  0.897472164757319  0.7219750956933901  1.0000
  N   N10       1.0  0.8582464239017151  0.10252783498682201  0.22197509590662487  1.0000
  N   N11       1.0  0.14175357621831952  0.6025278348588925  0.7780249045219189  1.0000
  N   N12       1.0  0.35824642384169786  0.39747216488524845  0.27802490473515346  1.0000
  N   N13       1.0  0.3260516782734829  0.25000000051666715  0.5360729952091514  1.0000
  N   N14       1.0  0.17394832178653444  0.7500000003887376  0.03607299542238615  1.0000
  N   N15       1.0  0.8260516783335002  0.25000000051666715  0.9639270050061575  1.0000
  N   N16       1.0  0.6739483212770103  0.7500000003887376  0.46392700436437917  1.0000
  O   O1        1.0  0.14581078031720932  0.6117589512944778  0.2650821330370694  1.0000
  O   O2        1.0  0.35418921974280804  0.3882410484496632  0.7650821328238347  1.0000
  O   O3        1.0  0.6458107803772267  0.8882410483217336  0.23491786674969586  1.0000
  O   O4        1.0  0.8541892198028254  0.11175895142240734  0.7349178673914741  1.0000
  O   O5        1.0  0.8541892198028254  0.3882410484496632  0.7349178673914741  1.0000
  O   O6        1.0  0.6458107803772267  0.6117589512944778  0.23491786674969586  1.0000
  O   O7        1.0  0.35418921974280804  0.11175895142240734  0.7650821328238347  1.0000
  O   O8        1.0  0.14581078031720932  0.8882410483217336  0.2650821330370694  1.0000
  O   O9        1.0  0.06765937084987816  0.7500000003887376  0.39822694050069457  1.0000
  O   O10       1.0  0.4323406292101392  0.25000000051666715  0.8982269411424729  1.0000
  O   O11       1.0  0.5676593709098955  0.7500000003887376  0.10177305928607072  1.0000
  O   O12       1.0  0.9323406287006151  0.25000000051666715  0.601773059072836  1.0000
  O   O13       1.0  0.2028722928917204  0.7500000003887376  0.4205970525120544  1.0000
  O   O14       1.0  0.297127707168297  0.25000000051666715  0.9205970522988198  1.0000
  O   O15       1.0  0.7028722929517378  0.7500000003887376  0.07940294727471081  1.0000
  O   O16       1.0  0.7971277072283143  0.25000000051666715  0.5794029470614761  1.0000
  Cl  Cl1       1.0  0.14071138261417335  0.7500000003887376  0.3385201169698442  1.0000
  Cl  Cl2       1.0  0.35928861744584406  0.25000000051666715  0.8385201167566094  1.0000
  Cl  Cl3       1.0  0.6407113826741908  0.7500000003887376  0.1614798836719341  1.0000
  Cl  Cl4       1.0  0.8592886175058614  0.25000000051666715  0.6614798834586995  1.0000
  Br  Br1       1.0  0.0540884322891093  0.25000000051666715  0.039481719471137364  1.0000
  Br  Br2       1.0  0.44591156777090807  0.7500000003887376  0.5394817192579027  1.0000
  Br  Br3       1.0  0.5540884323491266  0.25000000051666715  0.4605182803156279  1.0000
  Br  Br4       1.0  0.9459115672613839  0.7500000003887376  0.9605182801023933  1.0000
  Br  Br5       1.0  0.14362543106982734  0.25000000051666715  0.5042783858028373  1.0000
  Br  Br6       1.0  0.35637456899019004  0.7500000003887376  0.004278386016072088  1.0000
  Br  Br7       1.0  0.6436254311298447  0.25000000051666715  0.9957216144124714  1.0000
  Br  Br8       1.0  0.8563745690502074  0.7500000003887376  0.4957216146257062  1.0000
