data_image0
_chemical_formula_structural       H76C36N2Cl4Br10
_chemical_formula_sum              "H76 C36 N2 Cl4 Br10"
_cell_length_a       8.19954577605724
_cell_length_b       21.56822609902983
_cell_length_c       8.34730084882994
_cell_angle_alpha    90.0
_cell_angle_beta     115.37590552426425
_cell_angle_gamma    90.0

_space_group_name_H-M_alt    "P 1"
_space_group_IT_number       1

loop_
  _space_group_symop_operation_xyz
  'x, y, z'

loop_
  _atom_site_type_symbol
  _atom_site_label
  _atom_site_symmetry_multiplicity
  _atom_site_fract_x
  _atom_site_fract_y
  _atom_site_fract_z
  _atom_site_occupancy
  H   H1        1.0  0.02937585799683636  0.579595029864895  0.6392642521049849  1.0000
  H   H2        1.0  0.9706241421229608  0.07959502984240419  0.36073574881161036  1.0000
  H   H3        1.0  0.9099972040482415  0.5212872490476043  0.7027980402790494  1.0000
  H   H4        1.0  0.09000279607155569  0.021287249025113485  0.2972019606375459  1.0000
  H   H5        1.0  0.16175416101391699  0.3920931675683981  0.1417477659001122  1.0000
  H   H6        1.0  0.8382458385256022  0.8920931675908889  0.8582522336905616  1.0000
  H   H7        1.0  0.3886598201162523  0.38505232010589724  0.30232883133160365  1.0000
  H   H8        1.0  0.6113401794232669  0.8850523201283879  0.6976711682590702  1.0000
  H   H9        1.0  0.30416060691358865  0.43630554023278206  0.5289636703057661  1.0000
  H   H10       1.0  0.6958393932062085  0.9363055402552729  0.4710363306108291  1.0000
  H   H11       1.0  0.07827911902924094  0.4423545226294322  0.36769229947719223  1.0000
  H   H12       1.0  0.9217208817289991  0.9423545226519229  0.632307700111516  1.0000
  H   H13       1.0  0.4069913505059417  0.5015361894081116  0.34264147089015945  1.0000
  H   H14       1.0  0.5930086490335773  0.0015361893856208403  0.6573585287005144  1.0000
  H   H15       1.0  0.18460189087710038  0.5051265305722132  0.1749458365709759  1.0000
  H   H16       1.0  0.8153981086624187  0.005126530549722567  0.8250541630196979  1.0000
  H   H17       1.0  0.2637833090249947  0.6007883110323509  0.36296338137806994  1.0000
  H   H18       1.0  0.7362166905145243  0.10078831100986009  0.6370366182126039  1.0000
  H   H19       1.0  0.08322815265189855  0.5604675333287492  0.3810615103854545  1.0000
  H   H20       1.0  0.9167718468876206  0.0604675333062585  0.6189384892052193  1.0000
  H   H21       1.0  0.30630386493402095  0.5556363427838446  0.5544711801271339  1.0000
  H   H22       1.0  0.6936961351857761  0.05563634276135379  0.4455288207894614  1.0000
  H   H23       1.0  0.2549188033288505  0.22970797910092644  0.2934913520382126  1.0000
  H   H24       1.0  0.7450811962106687  0.7297079791234172  0.7065086475524612  1.0000
  H   H25       1.0  0.39752491881998103  0.28476175749457056  0.2580636728045507  1.0000
  H   H26       1.0  0.6024750819382589  0.7847617575170612  0.7419363267841576  1.0000
  H   H27       1.0  0.003401618108613391  0.257597020473089  0.006012612004853886  1.0000
  H   H28       1.0  0.9965983814309058  0.7575970200319347  0.99398738758582  1.0000
  H   H29       1.0  0.1316258882080283  0.3169186575018084  0.9695027057183238  1.0000
  H   H30       1.0  0.8683741113314908  0.8169186575242992  0.030497293872349913  1.0000
  H   H31       1.0  0.25145701655448593  0.18070018981186914  0.029794565329113867  1.0000
  H   H32       1.0  0.7485429829850332  0.6807001898343599  0.9702054342615599  1.0000
  H   H33       1.0  0.3500384874559087  0.24120010918440835  0.9585427959814873  1.0000
  H   H34       1.0  0.6499615126638884  0.741200109206899  0.04145720493510805  1.0000
  H   H35       1.0  0.14923279353433225  0.1779772635160139  0.6977533148586413  1.0000
  H   H36       1.0  0.850767206005187  0.6779772630748596  0.3022466847320325  1.0000
  H   H37       1.0  0.9671285767453619  0.18823264284041502  0.755977187161042  1.0000
  H   H38       1.0  0.032871422794157154  0.6882326428629059  0.24402281242963178  1.0000
  H   H39       1.0  0.049999786457522996  0.25317026699036776  0.683782391990215  1.0000
  H   H40       1.0  0.950000213662274  0.7531702670128585  0.3162176089263803  1.0000
  H   H41       1.0  0.2770727954183528  0.2631059695843627  0.5506543798742941  1.0000
  H   H42       1.0  0.7229272047014443  0.7631059696068535  0.44934562104230114  1.0000
  H   H43       1.0  0.25583204099205636  0.34184034728436213  0.5997427539014807  1.0000
  H   H44       1.0  0.7441679585474628  0.8418403473068529  0.40025724568919313  1.0000
  H   H45       1.0  0.5672245737040222  0.2937571222088123  0.5197676724258156  1.0000
  H   H46       1.0  0.4327754270542178  0.793757122231303  0.4802323271628926  1.0000
  H   H47       1.0  0.5533722955029454  0.36678664038837416  0.6077745167197224  1.0000
  H   H48       1.0  0.4466277040365737  0.866786640410865  0.3922254828709514  1.0000
  H   H49       1.0  0.7478000576313358  0.30669434100088305  0.8490731975993507  1.0000
  H   H50       1.0  0.2521999419081833  0.8066943410233738  0.15092680199132302  1.0000
  H   H51       1.0  0.5457867101102616  0.30937747218349815  0.8741366102167739  1.0000
  H   H52       1.0  0.4542132894292575  0.809377472205989  0.12586338937389985  1.0000
  H   H53       1.0  0.6725626868846921  0.20040827466077196  0.9259439000947375  1.0000
  H   H54       1.0  0.32743731265482695  0.7004082746832627  0.07405609949593632  1.0000
  H   H55       1.0  0.4647030177475613  0.20107958438895823  0.7355330919027614  1.0000
  H   H56       1.0  0.5352969823722358  0.701079584411449  0.2644669090138338  1.0000
  H   H57       1.0  0.6691979917717474  0.20036789674577787  0.7121831928417648  1.0000
  H   H58       1.0  0.3308020077677717  0.7003678967682686  0.287816806748909  1.0000
  H   H59       1.0  0.9842791011025577  0.3502223764401179  0.38190395354550466  1.0000
  H   H60       1.0  0.015720899017239377  0.8502223764626087  0.6180960473710905  1.0000
  H   H61       1.0  0.9341824135806962  0.33849840995168357  0.15487979207869054  1.0000
  H   H62       1.0  0.06581758717754384  0.8384984099741742  0.8451202075100177  1.0000
  H   H63       1.0  0.9368377067389675  0.22411147341493357  0.19488994399918882  1.0000
  H   H64       1.0  0.06316229280055154  0.7241114734374243  0.805110055591485  1.0000
  H   H65       1.0  0.027429062301273878  0.23221884623257413  0.4261314077811877  1.0000
  H   H66       1.0  0.9725709372382453  0.7322188462550648  0.5738685918094861  1.0000
  H   H67       1.0  0.6544059788437638  0.27832515814872805  0.16836248742516277  1.0000
  H   H68       1.0  0.34559402069575534  0.7783251577075738  0.8316375121655111  1.0000
  H   H69       1.0  0.7517038982275259  0.2877169513852201  0.4005870796130658  1.0000
  H   H70       1.0  0.24829610131199317  0.7877169514077107  0.5994129199776081  1.0000
  H   H71       1.0  0.551360478875057  0.19161916566638287  0.3109674114474723  1.0000
  H   H72       1.0  0.44863952246346095  0.6916191656888736  0.6890325894671574  1.0000
  H   H73       1.0  0.6832226621431774  0.16106493988192475  0.20832723550400353  1.0000
  H   H74       1.0  0.3167773386150626  0.6610649399044155  0.7916727640847047  1.0000
  H   H75       1.0  0.7797558999357697  0.17171781411205606  0.44096950182243144  1.0000
  H   H76       1.0  0.2202440996037495  0.6717178141345468  0.5590304977682423  1.0000
  C   C1        1.0  0.5937525456008903  0.47586762596399496  0.032730726666809824  1.0000
  C   C2        1.0  0.40624745451890676  0.9758676259864857  0.9672692742497855  1.0000
  C   C3        1.0  0.9347814281208545  0.571001079247494  0.6973360715963444  1.0000
  C   C4        1.0  0.06521857199894254  0.07100107922500326  0.3026639293202508  1.0000
  C   C5        1.0  0.24794504710783122  0.386827169359806  0.28408392112443737  1.0000
  C   C6        1.0  0.7520549524316879  0.8868271693822968  0.7159160784662364  1.0000
  C   C7        1.0  0.21912726456283693  0.44071485370915914  0.385769324916999  1.0000
  C   C8        1.0  0.7808727349766823  0.9407148537316499  0.6142306746736749  1.0000
  C   C9        1.0  0.26426675082934825  0.5016102631864865  0.3194285665414828  1.0000
  C   C10       1.0  0.7357332499288918  0.001610263163995774  0.6805714330472253  1.0000
  C   C11       1.0  0.2271997171228498  0.5577172172050385  0.4097887931974455  1.0000
  C   C12       1.0  0.7728002829969474  0.05771721718254779  0.5902112077191498  1.0000
  C   C13       1.0  0.2576151949266425  0.2745829797410364  0.2323872791773202  1.0000
  C   C14       1.0  0.7423848058315975  0.7745829797635272  0.767612720411388  1.0000
  C   C15       1.0  0.14172339456233768  0.27176319847016334  0.034274843932365184  1.0000
  C   C16       1.0  0.8582766049771814  0.771763198492654  0.9657251556583085  1.0000
  C   C17       1.0  0.22092603685941092  0.2239159357763426  0.9519086957957591  1.0000
  C   C18       1.0  0.7790739626801081  0.7239159357988334  0.04809130379491475  1.0000
  C   C19       1.0  0.09030759120407675  0.21002575822421302  0.7609366383443437  1.0000
  C   C20       1.0  0.9096924083354424  0.7100257582467038  0.23906336124633012  1.0000
  C   C21       1.0  0.31159977408313516  0.3107268200559831  0.5314648142747338  1.0000
  C   C22       1.0  0.6884002272553829  0.8107268200784739  0.46853518663989596  1.0000
  C   C23       1.0  0.5149184542434876  0.31789562055399695  0.6039419197001731  1.0000
  C   C24       1.0  0.4850815452960315  0.8178956205764877  0.39605807989050074  1.0000
  C   C25       1.0  0.6075384168895799  0.2901982458483937  0.7906730921816866  1.0000
  C   C26       1.0  0.39246158386866015  0.7901982458708845  0.20932690740702167  1.0000
  C   C27       1.0  0.6030527451463752  0.21944515873806142  0.7915007851340687  1.0000
  C   C28       1.0  0.39694725497342187  0.7194451587605522  0.20849921578252656  1.0000
  C   C29       1.0  0.005729585145115949  0.3191037106343013  0.2886705357997697  1.0000
  C   C30       1.0  0.9942704143944031  0.8191037106567921  0.7113294637909041  1.0000
  C   C31       1.0  0.938198497139146  0.2545413695494851  0.30096945741962317  1.0000
  C   C32       1.0  0.06180150298065105  0.7545413695719759  0.6990305434969721  1.0000
  C   C33       1.0  0.7488679835504447  0.2569701297896402  0.2939127321386162  1.0000
  C   C34       1.0  0.2511320165693523  0.7569701293484861  0.706087268777979  1.0000
  C   C35       1.0  0.6864908261771115  0.19208818476668132  0.31417403608163696  1.0000
  C   C36       1.0  0.3135091739426856  0.692088184789172  0.6858259648349582  1.0000
  N   N1        1.0  0.20576437832504832  0.32300275729738237  0.33395200722435286  1.0000
  N   N2        1.0  0.7942356224331917  0.8230027573198732  0.6660479923643553  1.0000
  Cl  Cl1       1.0  0.7262439653899896  0.6074890285293035  0.5603578746199521  1.0000
  Cl  Cl2       1.0  0.2737560347298074  0.10748902897045774  0.4396421262966431  1.0000
  Cl  Cl3       1.0  0.03080147198453963  0.6007226579743061  0.9166685967095551  1.0000
  Cl  Cl4       1.0  0.9691985275549795  0.10072265795181544  0.08333140288111865  1.0000
  Br  Br1       1.0  0.9452369869172096  0.39779672610099037  0.6830795993643446  1.0000
  Br  Br2       1.0  0.05476301262230953  0.8977967261234812  0.31692040022632917  1.0000
  Br  Br3       1.0  0.34558775418844623  0.44281913107492926  0.9037025083834437  1.0000
  Br  Br4       1.0  0.6544122453510728  0.94281913109742  0.09629749120723015  1.0000
  Br  Br5       1.0  0.742284120999332  0.44955647374431723  0.909928638957323  1.0000
  Br  Br6       1.0  0.2577158785401871  0.9495564737668079  0.0900713606333508  1.0000
  Br  Br7       1.0  0.7061659121318447  0.44621208002047524  0.28106886935531855  1.0000
  Br  Br8       1.0  0.2938340886263953  0.946212080042966  0.7189311302333896  1.0000
  Br  Br9       1.0  0.581751876074294  0.5668344190137142  0.03307094514704132  1.0000
  Br  Br10      1.0  0.41824812346522516  0.06683441899122343  0.9669290544436325  1.0000
