data_image0
_chemical_formula_structural       H20C28F12Cl4I4
_chemical_formula_sum              "H20 C28 F12 Cl4 I4"
_cell_length_a       9.240430149878742
_cell_length_b       9.436547218720118
_cell_length_c       10.93979596494502
_cell_angle_alpha    94.21204032317394
_cell_angle_beta     94.65596503067323
_cell_angle_gamma    100.35662273060251

_space_group_name_H-M_alt    "P 1"
_space_group_IT_number       1

loop_
  _space_group_symop_operation_xyz
  'x, y, z'

loop_
  _atom_site_type_symbol
  _atom_site_label
  _atom_site_symmetry_multiplicity
  _atom_site_fract_x
  _atom_site_fract_y
  _atom_site_fract_z
  _atom_site_occupancy
  H   H1        1.0  0.838333902286688  0.2932064816125448  0.7128003728930826  1.0000
  H   H2        1.0  0.16166609754556152  0.7067935185591302  0.2871996270539097  1.0000
  H   H3        1.0  0.04267293245082474  0.3313839925659103  0.8829675433425475  1.0000
  H   H4        1.0  0.9573270684637317  0.6686160076067557  0.11703245660366565  1.0000
  H   H5        1.0  0.9826953403515752  0.3397079547253182  0.10144799873457708  1.0000
  H   H6        1.0  0.017304659480674296  0.6602920454463569  0.8985520012124153  1.0000
  H   H7        1.0  0.5166932435804783  0.2748759618429559  0.9766511741482571  1.0000
  H   H8        1.0  0.4833067562517713  0.7251240383287193  0.02334882579873533  1.0000
  H   H9        1.0  0.5780932252299865  0.2624168462162169  0.7598251217779176  1.0000
  H   H10       1.0  0.4219067746022631  0.7375831539554581  0.24017487816907498  1.0000
  H   H11       1.0  0.239123841028179  0.1792242002861152  0.9801587913133579  1.0000
  H   H12       1.0  0.7608761588040707  0.8207757998855599  0.019841208633634557  1.0000
  H   H13       1.0  0.29075358526079875  0.430528663281053  0.0771510825501318  1.0000
  H   H14       1.0  0.7092464145714509  0.5694713368906219  0.9228489173968607  1.0000
  H   H15       1.0  0.32666025539133753  0.4776149551202553  0.30668864344413344  1.0000
  H   H16       1.0  0.6733397444409122  0.5223850450514198  0.6933113565028589  1.0000
  H   H17       1.0  0.26921964170083135  0.016410621518205826  0.338399009372379  1.0000
  H   H18       1.0  0.7307803581314183  0.9835893786534692  0.6616009905746134  1.0000
  H   H19       1.0  0.2283662183923942  0.971495787422818  0.11004708657537778  1.0000
  H   H20       1.0  0.7716337814398554  0.02850421274885721  0.8899529133716146  1.0000
  C   C1        1.0  0.8136849336837638  0.29615250474715227  0.8085329540844779  1.0000
  C   C2        1.0  0.18631506614848578  0.7038474954245229  0.19146704586251434  1.0000
  C   C3        1.0  0.9277947512268718  0.3178405639249431  0.903904295642696  1.0000
  C   C4        1.0  0.0722052486053778  0.682159436246732  0.09609570430429645  1.0000
  C   C5        1.0  0.8948311593839532  0.32318489052115434  0.026446782159829756  1.0000
  C   C6        1.0  0.10516884133347444  0.6768151085738672  0.9735532177826541  1.0000
  C   C7        1.0  0.7469103724548152  0.30687301084900154  0.04951936371669123  1.0000
  C   C8        1.0  0.25308962737743435  0.6931269893226735  0.9504806362303012  1.0000
  C   C9        1.0  0.6311954525368678  0.28510616095063024  0.9562964459283769  1.0000
  C   C10       1.0  0.3688045483776885  0.7148938392220358  0.043703554017836196  1.0000
  C   C11       1.0  0.6663852353639281  0.2788942506607026  0.8345443103551644  1.0000
  C   C12       1.0  0.33361476446832145  0.7211057495109724  0.16545568959182805  1.0000
  C   C13       1.0  0.7040967309514315  0.07864853940029869  0.22686185467956135  1.0000
  C   C14       1.0  0.29590326888081797  0.9213514607713763  0.7731381452674311  1.0000
  C   C15       1.0  0.25608312395977334  0.1985170334396153  0.08014963929904487  1.0000
  C   C16       1.0  0.7439168758724762  0.8014829667320598  0.9198503606479476  1.0000
  C   C17       1.0  0.28418570849083624  0.34046992536229154  0.13451137459919818  1.0000
  C   C18       1.0  0.7158142913414134  0.6595300748093835  0.8654886253477942  1.0000
  C   C19       1.0  0.30537741379008543  0.36755937680724177  0.262667690612769  1.0000
  C   C20       1.0  0.6946225860421641  0.6324406233644332  0.7373323093342236  1.0000
  C   C21       1.0  0.2988944123030412  0.24949015671217523  0.33283750903539766  1.0000
  C   C22       1.0  0.7011055875292084  0.7505098434595  0.6671624909115947  1.0000
  C   C23       1.0  0.2727872779421281  0.10659973776105569  0.28107897241221247  1.0000
  C   C24       1.0  0.7272127218901215  0.8934002624106193  0.7189210275347799  1.0000
  C   C25       1.0  0.25044890140793535  0.08213579149142164  0.1526701190978295  1.0000
  C   C26       1.0  0.7495510982271856  0.917864207602609  0.8473298808454336  1.0000
  C   C27       1.0  0.08048534232283172  0.2756367196827834  0.5302981400061809  1.0000
  C   C28       1.0  0.9195146575094177  0.7243632804888918  0.4697018599408115  1.0000
  F   F1        1.0  0.6072759652816457  0.007083018134301632  0.1331118569351162  1.0000
  F   F2        1.0  0.39272403455060395  0.9929169820373736  0.8668881430118763  1.0000
  F   F3        1.0  0.8409901139178141  0.05603927281004632  0.20561008596212169  1.0000
  F   F4        1.0  0.15900988699674243  0.9439607273626198  0.7943899139840915  1.0000
  F   F5        1.0  0.6679701342355496  0.0225766287083408  0.33228416753701645  1.0000
  F   F6        1.0  0.3320298655967  0.9774233714633344  0.6677158324099759  1.0000
  F   F7        1.0  0.012042067286000605  0.24676458123620723  0.41474168435198366  1.0000
  F   F8        1.0  0.9879579325462491  0.7532354189354677  0.5852583155950088  1.0000
  F   F9        1.0  0.0464068862336422  0.3992457255148465  0.5799920808292173  1.0000
  F   F10       1.0  0.9535931146809142  0.6007542746578195  0.4200079191169958  1.0000
  F   F11       1.0  0.02694388780836782  0.16644271387858497  0.5977085733247174  1.0000
  F   F12       1.0  0.9730561120238818  0.83355728629309  0.4022914266222751  1.0000
  Cl  Cl1       1.0  0.6305961322038676  0.30073039887259967  0.5050179372025605  1.0000
  Cl  Cl2       1.0  0.3694038674312532  0.6992696002214308  0.49498206274070267  1.0000
  Cl  Cl3       1.0  0.6885426165734663  0.610496683695027  0.20141749479962237  1.0000
  Cl  Cl4       1.0  0.3114573832587833  0.3895033164766482  0.79858250514737  1.0000
  I   I1        1.0  0.695457889052403  0.31801090354653433  0.2356116596868515  1.0000
  I   I2        1.0  0.3045421107798467  0.6819890966251407  0.7643883402601409  1.0000
  I   I3        1.0  0.32933661887167315  0.293663590571095  0.5277212379346846  1.0000
  I   I4        1.0  0.6706633809605766  0.7063364096005801  0.47227876201230784  1.0000
