data_image0
_chemical_formula_structural       H28C28N4O8Cl4
_chemical_formula_sum              "H28 C28 N4 O8 Cl4"
_cell_length_a       9.320128805168014
_cell_length_b       4.059069728869754
_cell_length_c       19.956903883212256
_cell_angle_alpha    90.0
_cell_angle_beta     90.04102689923978
_cell_angle_gamma    90.0

_space_group_name_H-M_alt    "P 1"
_space_group_IT_number       1

loop_
  _space_group_symop_operation_xyz
  'x, y, z'

loop_
  _atom_site_type_symbol
  _atom_site_label
  _atom_site_symmetry_multiplicity
  _atom_site_fract_x
  _atom_site_fract_y
  _atom_site_fract_z
  _atom_site_occupancy
  H   H1        1.0  0.37109828380095594  0.5308691828262859  0.34036109466878456  1.0000
  H   H2        1.0  0.6289017165575371  0.030869183918870436  0.15963890540526465  1.0000
  H   H3        1.0  0.628901716410303  0.4691308174521637  0.6596389055379258  1.0000
  H   H4        1.0  0.37109828365372194  0.9691308163595791  0.8403610948014458  1.0000
  H   H5        1.0  0.5737648348271828  0.26465006313136674  0.3989529177221585  1.0000
  H   H6        1.0  0.42623516552788204  0.7646500645024008  0.10104708185081233  1.0000
  H   H7        1.0  0.426235165380648  0.7353499346834641  0.6010470819834736  1.0000
  H   H8        1.0  0.5737648346799488  0.2353499357760487  0.8989529178548196  1.0000
  H   H9        1.0  0.26820083543834067  0.9531487898527164  0.5511950515008016  1.0000
  H   H10       1.0  0.7317991635527429  0.4531487909453011  0.9488049488398123  1.0000
  H   H11       1.0  0.731799163699977  0.04685121042573304  0.44880494870715104  1.0000
  H   H12       1.0  0.2682008355855747  0.5468512093331485  0.051195051368140364  1.0000
  H   H13       1.0  0.08046199910951642  0.23349998233804978  0.48470555130812737  1.0000
  H   H14       1.0  0.9195380012455483  0.7334999812454652  0.015294448264843517  1.0000
  H   H15       1.0  0.9195380010983143  0.7665000179403998  0.5152944483975047  1.0000
  H   H16       1.0  0.08046199896228237  0.2665000190329843  0.9847055514407886  1.0000
  H   H17       1.0  0.12620139472726388  0.12179122385701269  0.2663173191463382  1.0000
  H   H18       1.0  0.8737986056312291  0.6217912252280468  0.23368268092771102  1.0000
  H   H19       1.0  0.8737986054839951  0.8782087764214368  0.7336826810603722  1.0000
  H   H20       1.0  0.12620139458002982  0.37820877505040273  0.7663173192789994  1.0000
  H   H21       1.0  0.20234186466806378  0.43017300924421453  0.2128866855117797  1.0000
  H   H22       1.0  0.7976581356904292  0.93017300815163  0.2871133145622695  1.0000
  H   H23       1.0  0.7976581355431952  0.5698269910342351  0.7871133146949307  1.0000
  H   H24       1.0  0.20234186452082972  0.06982699212681959  0.7128866856444409  1.0000
  H   H25       1.0  0.8913034855244506  0.04609859709212307  0.12838671348651098  1.0000
  H   H26       1.0  0.10869651376110116  0.5460985959995385  0.37161328658878046  1.0000
  H   H27       1.0  0.10869651361386713  0.9539014031863265  0.8716132867214416  1.0000
  H   H28       1.0  0.8913034864501578  0.45390140181529237  0.62838671361793  1.0000
  C   C1        1.0  0.3541742252438754  0.3985557425864833  0.3873031249820929  1.0000
  C   C2        1.0  0.6458257751111894  0.8985557414938987  0.11269687459087792  1.0000
  C   C3        1.0  0.6458257749639554  0.6014442576919663  0.6126968747235392  1.0000
  C   C4        1.0  0.35417422509664137  0.10144425878455085  0.8873031251147542  1.0000
  C   C5        1.0  0.46703380737492983  0.24736689612858298  0.42074069815296256  1.0000
  C   C6        1.0  0.5329661929835632  0.7473668950359985  0.0792593019210866  1.0000
  C   C7        1.0  0.5329661928363292  0.7526331041498665  0.5792593020537478  1.0000
  C   C8        1.0  0.4670338072242675  0.25263310524245114  0.9207406977845456  1.0000
  C   C9        1.0  0.4409871048614242  0.08151227549671311  0.4813477065049608  1.0000
  C   C10       1.0  0.5590128954936406  0.5815122768677472  0.018652293068010077  1.0000
  C   C11       1.0  0.5590128953464066  0.9184877247817365  0.5186522932006713  1.0000
  C   C12       1.0  0.44098710471419006  0.41848772341070234  0.9813477066376219  1.0000
  C   C13       1.0  0.298962433128435  0.0776141729616759  0.5050876629179427  1.0000
  C   C14       1.0  0.7010375669321617  0.5776141718690914  0.9949123369203507  1.0000
  C   C15       1.0  0.7010375670793957  0.9223858273167737  0.4949123367876895  1.0000
  C   C16       1.0  0.29896243327566907  0.42238582594573953  0.005087662785281434  1.0000
  C   C17       1.0  0.19211025160242343  0.23357095426493021  0.46827825078056917  1.0000
  C   C18       1.0  0.8078897476831282  0.7335709531723457  0.031721749294722275  1.0000
  C   C19       1.0  0.8078897475358942  0.7664290460135194  0.5317217494273835  1.0000
  C   C20       1.0  0.1921102514551894  0.26642904710610393  0.9682782509132304  1.0000
  C   C21       1.0  0.18459812551512284  0.16533103514505643  0.2195858958353258  1.0000
  C   C22       1.0  0.8154018748433701  0.665331034052472  0.28041410423872337  1.0000
  C   C23       1.0  0.8154018746961361  0.8346689651333931  0.7804141043713846  1.0000
  C   C24       1.0  0.18459812536788878  0.33466896622597764  0.7195858959679869  1.0000
  C   C25       1.0  0.09588663610626799  0.039779777334586694  0.1610638387825828  1.0000
  C   C26       1.0  0.9041133642522249  0.5397797762420021  0.33893616129146636  1.0000
  C   C27       1.0  0.9041133641049911  0.9602202229438629  0.8389361614241275  1.0000
  C   C28       1.0  0.09588663595560576  0.4602202240364474  0.6610638384141657  1.0000
  N   N1        1.0  0.21900436302530463  0.39182370253167764  0.4105970874780858  1.0000
  N   N2        1.0  0.780995636260247  0.8918237039027118  0.08940291259720563  1.0000
  N   N3        1.0  0.780995636113013  0.6081762977467718  0.5894029127298668  1.0000
  N   N4        1.0  0.21900436395101194  0.10817629637573775  0.9105970876095049  1.0000
  O   O1        1.0  0.14001011671906696  0.8519942205976745  0.11710586872412715  1.0000
  O   O2        1.0  0.859989883639426  0.35199421922664037  0.382894131349922  1.0000
  O   O3        1.0  0.8599898834887637  0.14800577968077502  0.8828941309815048  1.0000
  O   O4        1.0  0.14001011657183293  0.6480057810518092  0.6171058688567884  1.0000
  O   O5        1.0  0.9651892332500247  0.16232924635750762  0.16476634126905948  1.0000
  O   O6        1.0  0.03481076710504007  0.6623292477285417  0.3352336583039114  1.0000
  O   O7        1.0  0.034810766957806036  0.8376707539209419  0.8352336584365725  1.0000
  O   O8        1.0  0.9651892331027907  0.3376707525499078  0.6647663414017206  1.0000
  Cl  Cl1       1.0  0.3555670257907245  0.9753732959651353  0.22780603828945853  1.0000
  Cl  Cl2       1.0  0.6444329745677685  0.47537329705771986  0.27219396178459065  1.0000
  Cl  Cl3       1.0  0.6444329744171062  0.024626704313314235  0.7721939614161736  1.0000
  Cl  Cl4       1.0  0.3555670256434905  0.5246267032207297  0.7278060384221198  1.0000
