data_image0
_chemical_formula_structural       H26C36N4O4Cl6
_chemical_formula_sum              "H26 C36 N4 O4 Cl6"
_cell_length_a       3.824040626164768
_cell_length_b       12.256444433372344
_cell_length_c       18.231529399056328
_cell_angle_alpha    106.1627705284121
_cell_angle_beta     91.61775271001711
_cell_angle_gamma    90.17166993429315

_space_group_name_H-M_alt    "P 1"
_space_group_IT_number       1

loop_
  _space_group_symop_operation_xyz
  'x, y, z'

loop_
  _atom_site_type_symbol
  _atom_site_label
  _atom_site_symmetry_multiplicity
  _atom_site_fract_x
  _atom_site_fract_y
  _atom_site_fract_z
  _atom_site_occupancy
  H   H1        1.0  0.11760061030115715  0.23654754713345377  0.12020313398339023  1.0000
  H   H2        1.0  0.8823993903426066  0.7634524527209691  0.8797968658558313  1.0000
  H   H3        1.0  0.3001139666899251  0.3463834627113905  0.25046521884550993  1.0000
  H   H4        1.0  0.6998860314310673  0.6536165381944864  0.7495347815676264  1.0000
  H   H5        1.0  0.14247575433220785  0.1916752485370982  0.43295678434506607  1.0000
  H   H6        1.0  0.8575242463115558  0.8083247513173247  0.5670432154941554  1.0000
  H   H7        1.0  0.6227057791164912  0.9192164346515135  0.06755532383036457  1.0000
  H   H8        1.0  0.3772942216138881  0.08078356543819294  0.9324446765801876  1.0000
  H   H9        1.0  0.8519974937585542  0.09076096705647153  0.032538292240104134  1.0000
  H   H10       1.0  0.1480025068852095  0.9092390327979514  0.9674617075991173  1.0000
  H   H11       1.0  0.8585934336370893  0.023598277088601315  0.34040475281247595  1.0000
  H   H12       1.0  0.14140656700667448  0.9764017227658215  0.6595952470267455  1.0000
  H   H13       1.0  0.6106050340227457  0.3890564414368323  0.12804371805102316  1.0000
  H   H14       1.0  0.3893949666264362  0.610943559233886  0.8719562817891543  1.0000
  H   H15       1.0  0.3591705115656852  0.8051773878887952  0.17900191419022318  1.0000
  H   H16       1.0  0.6408294864632734  0.19482261196550285  0.8209980856506266  1.0000
  H   H17       1.0  0.15254370110201845  0.683206363612077  0.05988592097936725  1.0000
  H   H18       1.0  0.8474562995417452  0.316793636242346  0.9401140788598543  1.0000
  H   H19       1.0  0.3932188895952467  0.8696948875133365  0.3115771119073504  1.0000
  H   H20       1.0  0.6067811111351326  0.13030511257637004  0.6884228885032018  1.0000
  H   H21       1.0  0.011515010466847117  0.6504205645076202  0.4422862350389131  1.0000
  H   H22       1.0  0.9884849901769166  0.3495794353468026  0.5577137648003083  1.0000
  H   H23       1.0  0.8077436058143667  0.5097331182345796  0.3224134246993617  1.0000
  H   H24       1.0  0.1922563949160126  0.4902668818551268  0.6775865757111904  1.0000
  H   H25       1.0  0.8282965263976285  0.5025761261267567  0.05552529835744631  1.0000
  H   H26       1.0  0.17170347424613522  0.4974238737276662  0.9444747014817754  1.0000
  C   C1        1.0  0.20269130799005783  0.276374919166613  0.27032682766510596  1.0000
  C   C2        1.0  0.7973086900389008  0.7236250806876849  0.7296731721757439  1.0000
  C   C3        1.0  0.7475057612321738  0.9907621640560341  0.18905173436232445  1.0000
  C   C4        1.0  0.25249423679678473  0.009237835798263944  0.8109482654785254  1.0000
  C   C5        1.0  0.23191221489205086  0.27799214634298663  0.34636870351295074  1.0000
  C   C6        1.0  0.7680877857517128  0.7220078535114363  0.6536312963262707  1.0000
  C   C7        1.0  0.04413888736376973  0.18058385736473678  0.21832137113804703  1.0000
  C   C8        1.0  0.955861113279994  0.819416142489686  0.7816786287011744  1.0000
  C   C9        1.0  0.11207501119484248  0.18750623364556973  0.37281449836369757  1.0000
  C   C10       1.0  0.8879249894489212  0.8124937662088532  0.6271855014755239  1.0000
  C   C11       1.0  0.7336779159516454  0.9920663827299461  0.11095150309233624  1.0000
  C   C12       1.0  0.2663220846921183  0.007933617124476896  0.8890484967468852  1.0000
  C   C13       1.0  0.8622579992402537  0.08415259351372807  0.09087369542755999  1.0000
  C   C14       1.0  0.13774200140350995  0.9158474063406948  0.9091263044116615  1.0000
  C   C15       1.0  0.9160230515890704  0.08884434540600718  0.24342930217097908  1.0000
  C   C16       1.0  0.08397694643988819  0.9111556544482908  0.7565706976698707  1.0000
  C   C17       1.0  0.9550863011451936  0.0946168237951815  0.32140938773921435  1.0000
  C   C18       1.0  0.04491369949857022  0.9053831760592413  0.6785906121000072  1.0000
  C   C19       1.0  0.20745490510975612  0.7685525062480832  0.38328920903558  1.0000
  C   C20       1.0  0.7925450956206233  0.23144749384162303  0.6167107913749721  1.0000
  C   C21       1.0  0.09650868062660525  0.6594135679108313  0.11179892633057524  1.0000
  C   C22       1.0  0.9034913200171584  0.3405864319435916  0.8882010735086462  1.0000
  C   C23       1.0  0.2633725301929102  0.7920466487577527  0.3147904926453282  1.0000
  C   C24       1.0  0.7366274704508535  0.2079533510966703  0.6852095071938934  1.0000
  C   C25       1.0  0.04662785392707878  0.6665725291070207  0.38717618470502563  1.0000
  C   C26       1.0  0.9533721441018798  0.3334274707472773  0.6128238151358243  1.0000
  C   C27       1.0  0.9833808703725058  0.6089520125722498  0.24882554540000304  1.0000
  C   C28       1.0  0.016619130357873397  0.3910479875174566  0.7511744550105491  1.0000
  C   C29       1.0  0.15279238183587526  0.7113117010382233  0.24677587970155757  1.0000
  C   C30       1.0  0.8472076188078884  0.2886882988161996  0.7532241201376639  1.0000
  C   C31       1.0  0.9355514816392857  0.588240077725004  0.32040055425005715  1.0000
  C   C32       1.0  0.06444851900447802  0.41175992212941886  0.6795994455891643  1.0000
  C   C33       1.0  0.9202983771909706  0.5593201500578916  0.10975463087170956  1.0000
  C   C34       1.0  0.07970162353940859  0.44067985003181476  0.8902453695388426  1.0000
  C   C35       1.0  0.8652532607739694  0.5313677080370085  0.17796891800933443  1.0000
  C   C36       1.0  0.13474673986979435  0.4686322918174144  0.822031081829887  1.0000
  N   N1        1.0  0.008932753447919495  0.17499337303836374  0.14222923314550895  1.0000
  N   N2        1.0  0.9910672445810391  0.8250066268159344  0.8577707666953409  1.0000
  N   N3        1.0  0.20885668531802878  0.7315698298104863  0.17774025498364013  1.0000
  N   N4        1.0  0.7911433153257349  0.2684301700439366  0.8222597448555814  1.0000
  O   O1        1.0  0.6237107739728014  0.9103188189357481  0.21220564683604828  1.0000
  O   O2        1.0  0.3762892266709623  0.08968118091867486  0.7877943530031732  1.0000
  O   O3        1.0  0.7063044594209371  0.4367478930389858  0.18127286494128014  1.0000
  O   O4        1.0  0.2936955412228266  0.5632521068154371  0.8187271348979414  1.0000
  Cl  Cl1       1.0  0.4193236382018674  0.395327413908176  0.41235279609809666  1.0000
  Cl  Cl2       1.0  0.580676362528512  0.6046725861815304  0.5876472043124554  1.0000
  Cl  Cl3       1.0  0.3426779557576508  0.8680023851202312  0.4668109475349056  1.0000
  Cl  Cl4       1.0  0.6573220449727284  0.13199761496947507  0.5331890528756466  1.0000
  Cl  Cl5       1.0  0.3847680576429242  0.300489189593211  0.039957903402868276  1.0000
  Cl  Cl6       1.0  0.6152319430874551  0.6995108104964953  0.9600420970076838  1.0000
