data_image0
_chemical_formula_structural       H68C32N16I16
_chemical_formula_sum              "H68 C32 N16 I16"
_cell_length_a       9.648661018398574
_cell_length_b       11.696716323707669
_cell_length_c       15.11329020831639
_cell_angle_alpha    91.4705260070137
_cell_angle_beta     107.89493614053235
_cell_angle_gamma    91.01954018347095

_space_group_name_H-M_alt    "P 1"
_space_group_IT_number       1

loop_
  _space_group_symop_operation_xyz
  'x, y, z'

loop_
  _atom_site_type_symbol
  _atom_site_label
  _atom_site_symmetry_multiplicity
  _atom_site_fract_x
  _atom_site_fract_y
  _atom_site_fract_z
  _atom_site_occupancy
  H   H1        1.0  0.3337117156297188  0.25179374170547497  0.37236360776939054  1.0000
  H   H2        1.0  0.6662882841693849  0.7482062584732357  0.627636392467436  1.0000
  H   H3        1.0  0.31989471389145685  0.2724180481149356  0.48771904028516155  1.0000
  H   H4        1.0  0.6801052855775351  0.7275819520354488  0.5122809592559945  1.0000
  H   H5        1.0  0.38398978423879715  0.9448541556847564  0.39346493421342543  1.0000
  H   H6        1.0  0.6160102155603064  0.055145844493954384  0.6065350660234009  1.0000
  H   H7        1.0  0.3727083046797998  0.06364890955635892  0.31838031747468953  1.0000
  H   H8        1.0  0.6272916961575457  0.9363510906298222  0.681619682765709  1.0000
  H   H9        1.0  0.0005390407686072115  0.9397028514664754  0.3772950035259631  1.0000
  H   H10       1.0  0.9994609587003848  0.060297148683909035  0.6227049960151928  1.0000
  H   H11       1.0  0.17234399654007945  0.8730378327755257  0.42591722660034687  1.0000
  H   H12       1.0  0.8276560042878469  0.12696216655562279  0.5740827736403552  1.0000
  H   H13       1.0  0.36312617904359534  0.9729858720152468  0.5449251181766944  1.0000
  H   H14       1.0  0.6368738217937502  0.02701412817093425  0.455074882063704  1.0000
  H   H15       1.0  0.3339617815891037  0.11266491773049583  0.5861676113078818  1.0000
  H   H16       1.0  0.6660382189181301  0.8873350824273588  0.41383238823684626  1.0000
  H   H17       1.0  0.10295393043801358  0.1979605009164904  0.5229850561590513  1.0000
  H   H18       1.0  0.8970460703993322  0.8020394992696906  0.4770149440813472  1.0000
  H   H19       1.0  0.9602252934879598  0.12332661713259808  0.432898983636079  1.0000
  H   H20       1.0  0.03977470631114378  0.8766733830461125  0.5671010166007473  1.0000
  H   H21       1.0  0.981824973873847  0.09598425728902049  0.2781097641770366  1.0000
  H   H22       1.0  0.018175026963498365  0.9040157428971605  0.7218902360633619  1.0000
  H   H23       1.0  0.14112758415808674  0.15072289049001572  0.25228700115697306  1.0000
  H   H24       1.0  0.8588724153109053  0.8492771096603687  0.7477129983841829  1.0000
  H   H25       1.0  0.10953519107758451  0.3400208366094917  0.3081172948349317  1.0000
  H   H26       1.0  0.8904648087215191  0.659979163569219  0.6918827054018947  1.0000
  H   H27       1.0  0.943293875628613  0.2790395177121056  0.31450842902696885  1.0000
  H   H28       1.0  0.05670612384037903  0.7209604824382787  0.6854915705141872  1.0000
  H   H29       1.0  0.0035971694600013017  0.46693761719949217  0.4005081795147752  1.0000
  H   H30       1.0  0.9964028313773442  0.5330623829866888  0.5994918207256233  1.0000
  H   H31       1.0  0.16713847073427507  0.4160781845369914  0.47574117300818314  1.0000
  H   H32       1.0  0.8328615287347169  0.583921815613393  0.524258826532973  1.0000
  H   H33       1.0  0.9954711117239778  0.3584008974248676  0.4781812922727368  1.0000
  H   H34       1.0  0.0045288877450141846  0.6415991027255167  0.5218187072684192  1.0000
  H   H35       1.0  0.5633931987920489  0.35948800975429995  0.8973592252788428  1.0000
  H   H36       1.0  0.4366068010070549  0.6405119904244108  0.10264077495798357  1.0000
  H   H37       1.0  0.5429935376624089  0.24429319352568127  0.9693242730047649  1.0000
  H   H38       1.0  0.4570064621272757  0.755706805797997  0.030675727232365148  1.0000
  H   H39       1.0  0.6868598727365463  0.4067478475477761  0.18658054974652122  1.0000
  H   H40       1.0  0.31314012810079933  0.5932521526384049  0.8134194504938773  1.0000
  H   H41       1.0  0.6151228112641637  0.2711131494951666  0.1339960362778791  1.0000
  H   H42       1.0  0.3848771885255207  0.7288868498285117  0.8660039639592508  1.0000
  H   H43       1.0  0.924242374613415  0.47265302256610725  0.18626253449892471  1.0000
  H   H44       1.0  0.07575762622393079  0.5273469776200737  0.8137374657414738  1.0000
  H   H45       1.0  0.032075886798575926  0.3837233779291894  0.13588208210597277  1.0000
  H   H46       1.0  0.9679241130005278  0.6162766222495214  0.8641179181308537  1.0000
  H   H47       1.0  0.6607584297819753  0.5410101694822038  0.9662283082805361  1.0000
  H   H48       1.0  0.33924157105537023  0.45898983070397714  0.03377169195986249  1.0000
  H   H49       1.0  0.7150898903286217  0.5627297876639977  0.08960954447305708  1.0000
  H   H50       1.0  0.28491010947048195  0.43727021251471304  0.9103904557637693  1.0000
  H   H51       1.0  0.9658273276283144  0.3566447003095494  0.9722771419702133  1.0000
  H   H52       1.0  0.03417267184067748  0.643355299840835  0.02772285757094265  1.0000
  H   H53       1.0  0.806521536270452  0.42215837417629143  0.8975209964484532  1.0000
  H   H54       1.0  0.19347846351923254  0.5778416251473869  0.10247900378867687  1.0000
  H   H55       1.0  0.7588088040454263  0.15184830768728935  0.06783202665695913  1.0000
  H   H56       1.0  0.24119119574425832  0.8481516916363888  0.9321679735801709  1.0000
  H   H57       1.0  0.9380334535342099  0.20096379550983795  0.06886443028654153  1.0000
  H   H58       1.0  0.061966546264893806  0.7990362046688727  0.9311355699502848  1.0000
  H   H59       1.0  0.6688683916645258  0.12648385170911502  0.8983636248785803  1.0000
  H   H60       1.0  0.3311316081345778  0.8735161484695957  0.1016363753582461  1.0000
  H   H61       1.0  0.6879139892523302  0.240344864561011  0.8265649085596983  1.0000
  H   H62       1.0  0.3120860115850153  0.7596551356251701  0.1734350916807001  1.0000
  H   H63       1.0  0.8593061766150004  0.08793849593919247  0.8216673904899807  1.0000
  H   H64       1.0  0.14069382284457263  0.9120615033561593  0.17833260905147882  1.0000
  H   H65       1.0  0.9397172207309266  0.09547969855133248  0.9441281710258489  1.0000
  H   H66       1.0  0.060282778728646375  0.9045203007440195  0.05587182851561062  1.0000
  H   H67       1.0  0.9614761437558956  0.21110124873790503  0.8746208766542826  1.0000
  H   H68       1.0  0.038523856043207926  0.7888987514408057  0.12537912358254377  1.0000
  C   C1        1.0  0.2977852552530915  0.21285394538158678  0.4273799346282668  1.0000
  C   C2        1.0  0.7022147445460121  0.787146054797124  0.5726200656085596  1.0000
  C   C3        1.0  0.3311673675453146  0.02622634547581199  0.3716604715537787  1.0000
  C   C4        1.0  0.6688326332920308  0.973773654710369  0.6283395286866198  1.0000
  C   C5        1.0  0.1190223277593764  0.9546026767043794  0.4054978868121891  1.0000
  C   C6        1.0  0.8809776717096156  0.04539732344600493  0.5945021127289668  1.0000
  C   C7        1.0  0.30975355695780343  0.05442593125175854  0.5246337407175683  1.0000
  C   C8        1.0  0.6902464425017695  0.9455740680435933  0.4753662588238914  1.0000
  C   C9        1.0  0.07851676970474551  0.13791501766125525  0.4627755923355766  1.0000
  C   C10       1.0  0.9214832300943583  0.8620849825174555  0.5372244079012498  1.0000
  C   C11       1.0  0.10084845443133425  0.10934265318029199  0.30460704359280083  1.0000
  C   C12       1.0  0.8991515464060112  0.8906573470058889  0.6953929566475977  1.0000
  C   C13       1.0  0.055209745238220906  0.3041010039580454  0.3557783012272304  1.0000
  C   C14       1.0  0.9447902545514637  0.6958989953656329  0.6442216990098996  1.0000
  C   C15       1.0  0.0566900045950447  0.3896424179338818  0.43298217146783075  1.0000
  C   C16       1.0  0.9433099948739472  0.6103575822165024  0.5670178280733252  1.0000
  C   C17       1.0  0.608299042010583  0.3209567454022508  0.9655160269595687  1.0000
  C   C18       1.0  0.391700957458409  0.6790432547481337  0.034483972581587245  1.0000
  C   C19       1.0  0.6828960024140914  0.3459346295682567  0.12939800137801202  1.0000
  C   C20       1.0  0.3171039980837233  0.6540653697345654  0.8706019981670197  1.0000
  C   C21       1.0  0.920840093495137  0.41031810940384755  0.13006263730442788  1.0000
  C   C22       1.0  0.07915990630396674  0.5896818907748631  0.8699373629323984  1.0000
  C   C23       1.0  0.7093650608363183  0.5004201764483254  0.032996949531689294  1.0000
  C   C24       1.0  0.2906349389627854  0.49957982373038534  0.9670030507051371  1.0000
  C   C25       1.0  0.8556111803689218  0.3853194232469927  0.9658802507177562  1.0000
  C   C26       1.0  0.14438881943018175  0.614680576931718  0.03411974951907018  1.0000
  C   C27       1.0  0.8274803610459757  0.22674937251295593  0.06514038795500382  1.0000
  C   C28       1.0  0.17251963978195076  0.7732506268181925  0.9348596122856981  1.0000
  C   C29       1.0  0.7438213240628377  0.19445925855851517  0.8897930414969518  1.0000
  C   C30       1.0  0.25617867572684677  0.8055407407651632  0.1102069587401782  1.0000
  C   C31       1.0  0.8847261653404719  0.1453833103975471  0.8835011668864005  1.0000
  C   C32       1.0  0.11527383444921263  0.8546166889261312  0.11649883335072954  1.0000
  N   N1        1.0  0.13112830870337847  0.1953760849749098  0.3879333653327386  1.0000
  N   N2        1.0  0.8688716918038554  0.8046239151829447  0.6120666342119896  1.0000
  N   N3        1.0  0.36571017842988174  0.10532954092101245  0.4536270883586657  1.0000
  N   N4        1.0  0.634289821369222  0.8946704592576983  0.5463729118781606  1.0000
  N   N5        1.0  0.1727673085268379  0.004068494866865625  0.3329756452675441  1.0000
  N   N6        1.0  0.8272326909327351  0.9959315044284862  0.6670243542739156  1.0000
  N   N7        1.0  0.15144862198460832  0.03226346125290652  0.4881023181227746  1.0000
  N   N8        1.0  0.8485513778144953  0.967736538925804  0.5118976821140518  1.0000
  N   N9        1.0  0.760743624089684  0.27873538054730823  0.9691414885526924  1.0000
  N   N10       1.0  0.2392563757000005  0.72126461877637  0.030858511684437595  1.0000
  N   N11       1.0  0.6176050419508758  0.4011420768098822  0.04025260519996961  1.0000
  N   N12       1.0  0.3823949578482279  0.5988579233688285  0.9597473950368568  1.0000
  N   N13       1.0  0.8319479153379615  0.30941573959000396  0.13800594096399557  1.0000
  N   N14       1.0  0.16805208446114217  0.6905842605887069  0.8619940592728308  1.0000
  N   N15       1.0  0.8584514896171491  0.46518967463123634  0.04036999200318694  1.0000
  N   N16       1.0  0.1415485112201964  0.5348103255549448  0.9596300082372116  1.0000
  I   I1        1.0  0.7299507606575266  0.7712376210534386  0.8816649789470336  1.0000
  I   I2        1.0  0.27004923881146536  0.2287623790969457  0.11833502059412249  1.0000
  I   I3        1.0  0.7045804747552468  0.8980791507238987  0.048064599328635736  1.0000
  I   I4        1.0  0.2954195257519871  0.1019208494339558  0.9519354002160925  1.0000
  I   I5        1.0  0.6713793042512813  0.009761575820116794  0.21561928910956865  1.0000
  I   I6        1.0  0.32862069553840306  0.9902384235035614  0.7843807111275612  1.0000
  I   I7        1.0  0.6523310807416657  0.23708741672737405  0.35494906480678445  1.0000
  I   I8        1.0  0.34766891905743796  0.7629125834513365  0.645050935430042  1.0000
  I   I9        1.0  0.66346603988325  0.35108196817984666  0.524234099111994  1.0000
  I   I10       1.0  0.3365339595857419  0.6489180319705377  0.475765900429162  1.0000
  I   I11       1.0  0.6664514800198557  0.4797873938682851  0.7077844109761334  1.0000
  I   I12       1.0  0.3335485197792481  0.5202126063104255  0.2922155892606929  1.0000
  I   I13       1.0  0.36724063168276805  0.39061125449319906  0.702408855611875  1.0000
  I   I14       1.0  0.6327593681163358  0.6093887456855117  0.29759114462495145  1.0000
  I   I15       1.0  0.08607461306680932  0.31560710747199927  0.7055345485694726  1.0000
  I   I16       1.0  0.9139253864021827  0.684392892678385  0.2944654509716833  1.0000
