data_image0
_chemical_formula_structural       H90C120N6F8P6I14
_chemical_formula_sum              "H90 C120 N6 F8 P6 I14"
_cell_length_a       9.260001304925101
_cell_length_b       14.010788986907597
_cell_length_c       23.611759053820087
_cell_angle_alpha    94.20165793128238
_cell_angle_beta     101.28770464259786
_cell_angle_gamma    97.24973476214016

_space_group_name_H-M_alt    "P 1"
_space_group_IT_number       1

loop_
  _space_group_symop_operation_xyz
  'x, y, z'

loop_
  _atom_site_type_symbol
  _atom_site_label
  _atom_site_symmetry_multiplicity
  _atom_site_fract_x
  _atom_site_fract_y
  _atom_site_fract_z
  _atom_site_occupancy
  H   H1        1.0  0.3118106190162201  0.7465466572076865  0.5817018150311876  1.0000
  H   H2        1.0  0.688189381624689  0.25345334311383244  0.4182981849580804  1.0000
  H   H3        1.0  0.34543126587647616  0.7958407777518539  0.6865948267192629  1.0000
  H   H4        1.0  0.6545687336836784  0.2041592225671128  0.313405173269281  1.0000
  H   H5        1.0  0.3232094281818493  0.9653821032818036  0.7209867765765967  1.0000
  H   H6        1.0  0.6767905723251414  0.0346178963201714  0.27901322341230933  1.0000
  H   H7        1.0  0.27689911222325736  0.08591654348693678  0.6492403621717279  1.0000
  H   H8        1.0  0.7231008882837332  0.9140834561150383  0.35075963781717817  1.0000
  H   H9        1.0  0.24570215462286973  0.03754365993764572  0.544594025746902  1.0000
  H   H10       1.0  0.7542978449372848  0.9624563403813209  0.455405974241642  1.0000
  H   H11       1.0  0.22956614992333785  0.6817759574387141  0.3964039272415297  1.0000
  H   H12       1.0  0.7704338505836529  0.31822404216326106  0.6035960727473765  1.0000
  H   H13       1.0  0.4398349440944472  0.609053100936529  0.3683623079965  1.0000
  H   H14       1.0  0.5601650553317888  0.3909468986628937  0.6316376919916818  1.0000
  H   H15       1.0  0.6997988889322007  0.66751099789148  0.42141176991091867  1.0000
  H   H16       1.0  0.3002011117087086  0.33248900243003904  0.5785882300783494  1.0000
  H   H17       1.0  0.7489962924682175  0.794103663818633  0.5044143629727221  1.0000
  H   H18       1.0  0.2510037081726915  0.205896336502886  0.4955856370165459  1.0000
  H   H19       1.0  0.5405385218636045  0.8682293322093083  0.5326344754091378  1.0000
  H   H20       1.0  0.45946147864338605  0.1317706673926668  0.4673655245797682  1.0000
  H   H21       1.0  0.02778650724893077  0.9885454905827032  0.4592815337724623  1.0000
  H   H22       1.0  0.9722134932580598  0.011454509019271834  0.5407184662164437  1.0000
  H   H23       1.0  0.017276545456443793  0.122947039415085  0.3964635097975272  1.0000
  H   H24       1.0  0.9827234550505467  0.87705296018689  0.6035364901913788  1.0000
  H   H25       1.0  0.2033563235932324  0.1503307961476226  0.33386395854244083  1.0000
  H   H26       1.0  0.7966436758330036  0.8496692034518001  0.666136041445741  1.0000
  H   H27       1.0  0.3995147309159492  0.044689230570964925  0.3351432934911721  1.0000
  H   H28       1.0  0.60048526972496  0.9553107697505541  0.6648567064980959  1.0000
  H   H29       1.0  0.4148632365479294  0.9132823642864156  0.400082378665822  1.0000
  H   H30       1.0  0.5851367639590611  0.08671763531555943  0.5999176213230839  1.0000
  H   H31       1.0  0.9155987329554119  0.5184201770237289  0.18919884167929119  1.0000
  H   H32       1.0  0.08440126660474256  0.48157982329523774  0.8108011583092525  1.0000
  H   H33       1.0  0.022786929455219127  0.37456036719003605  0.2240128518850747  1.0000
  H   H34       1.0  0.9772130710517715  0.6254396324119391  0.7759871481038314  1.0000
  H   H35       1.0  0.9758513463413778  0.31334025261488396  0.3157836091822674  1.0000
  H   H36       1.0  0.024148653084858213  0.6866597469845388  0.6842163908059145  1.0000
  H   H37       1.0  0.8194576113862199  0.39565684310193605  0.372645824545695  1.0000
  H   H38       1.0  0.18054238925468932  0.6043431572195831  0.627354175443573  1.0000
  H   H39       1.0  0.7087104130950315  0.5381029772164683  0.3378458831087248  1.0000
  H   H40       1.0  0.2912895863312046  0.46189702238295444  0.662154116879457  1.0000
  H   H41       1.0  0.4881763875184174  0.49519939261243745  0.24183578673535566  1.0000
  H   H42       1.0  0.5118236129885732  0.5048006069895377  0.7581642132535503  1.0000
  H   H43       1.0  0.2304334684992984  0.5062026451040524  0.25153669356029285  1.0000
  H   H44       1.0  0.7695665310608563  0.4937973552149143  0.748463306428251  1.0000
  H   H45       1.0  0.1497409030019166  0.6670830238573735  0.2699916995007959  1.0000
  H   H46       1.0  0.8502590964243194  0.3329169757420492  0.7300083004873859  1.0000
  H   H47       1.0  0.3328562253792474  0.8166231497993891  0.2817394713110058  1.0000
  H   H48       1.0  0.6671437740469885  0.1833768498000336  0.718260528677176  1.0000
  H   H49       1.0  0.5919087214642876  0.8068320459406539  0.2700800158203285  1.0000
  H   H50       1.0  0.408091278095867  0.19316795437831263  0.7299199841682154  1.0000
  H   H51       1.0  0.47767024680109266  0.5648730720601592  0.14501525904738055  1.0000
  H   H52       1.0  0.5223297526251431  0.43512692753926335  0.8549847409408011  1.0000
  H   H53       1.0  0.43661561817157823  0.556915064388237  0.038075409107046314  1.0000
  H   H54       1.0  0.5633843813885764  0.44308493593072973  0.9619245908814975  1.0000
  H   H55       1.0  0.6362501063723657  0.6319906428016531  0.9907525587137356  1.0000
  H   H56       1.0  0.3637498942685435  0.36800935751986597  0.009247441275532453  1.0000
  H   H57       1.0  0.8774397805140104  0.7098043296336468  0.05150475440916189  1.0000
  H   H58       1.0  0.12256022012689878  0.29019567068787233  0.9484952455801062  1.0000
  H   H59       1.0  0.9247313684765767  0.7094327898968482  0.15871270554685887  1.0000
  H   H60       1.0  0.07526863094965935  0.2905672097025744  0.841287294441323  1.0000
  H   H61       1.0  0.5812540135701344  0.8248600914662038  0.09095510705415846  1.0000
  H   H62       1.0  0.41874598585610145  0.175139908133219  0.9090448929340234  1.0000
  H   H63       1.0  0.34689534368162095  0.7349789736082294  0.10601001181573204  1.0000
  H   H64       1.0  0.6531046558785336  0.26502102671073724  0.8939899881728117  1.0000
  H   H65       1.0  0.17777558943552363  0.8177937790387804  0.15612157032621224  1.0000
  H   H66       1.0  0.8222244099907123  0.18220622056064237  0.8438784296619696  1.0000
  H   H67       1.0  0.24507721039278857  0.9931529623973745  0.19135600821927778  1.0000
  H   H68       1.0  0.754922790114202  0.006847037204600569  0.8086439917696282  1.0000
  H   H69       1.0  0.47609464689052805  0.08446728018313737  0.1753763520180568  1.0000
  H   H70       1.0  0.523905352535708  0.9155327194162854  0.8246236479701251  1.0000
  H   H71       1.0  0.004477375325121747  0.9643194301382884  0.11838882117337911  1.0000
  H   H72       1.0  0.9955226251818688  0.03568056946368665  0.881611178815527  1.0000
  H   H73       1.0  0.09340675305586939  0.8819580221736416  0.0383153613765764  1.0000
  H   H74       1.0  0.9065932475850398  0.11804197814787747  0.9616846386126917  1.0000
  H   H75       1.0  0.9227750965331588  0.8344184067400913  0.9419428930265265  1.0000
  H   H76       1.0  0.07722490397383165  0.16558159286188376  0.058057106962379576  1.0000
  H   H77       1.0  0.6602766361299102  0.8657645745487614  0.9272281924975759  1.0000
  H   H78       1.0  0.33972336343024434  0.13423542577020509  0.07277180749096777  1.0000
  H   H79       1.0  0.5706422931081753  0.9478931522156111  0.007215475345929591  1.0000
  H   H80       1.0  0.4293577064519793  0.05210684810335561  0.9927845246426144  1.0000
  H   H81       1.0  0.6972733345240372  0.12238230275493002  0.017732306798702784  1.0000
  H   H82       1.0  0.30272666611687193  0.8776176975665889  0.9822676931905652  1.0000
  H   H83       1.0  0.64240662115265  0.28552733159682725  0.9966062061768239  1.0000
  H   H84       1.0  0.3575933784075047  0.7144726687221395  0.003393793811719877  1.0000
  H   H85       1.0  0.6143330688240338  0.4049191362899637  0.07601410417565735  1.0000
  H   H86       1.0  0.3856669306022023  0.5950808633094591  0.9239858958125245  1.0000
  H   H87       1.0  0.6373012285681836  0.3581664908594994  0.1766407870993433  1.0000
  H   H88       1.0  0.36269877085805247  0.6418335087399233  0.8233592128888386  1.0000
  H   H89       1.0  0.6916377209880872  0.19453104709152116  0.19825473982289962  1.0000
  H   H90       1.0  0.30836227843814873  0.8054689525079014  0.8017452601652821  1.0000
  C   C1        1.0  0.06395876258035814  0.4506364521191267  0.04716371794180961  1.0000
  C   C2        1.0  0.9360412369797965  0.54936354819984  0.9528362820467343  1.0000
  C   C3        1.0  0.9661559240144376  0.40103999015660535  0.9985030953307402  1.0000
  C   C4        1.0  0.03384407662647145  0.5989600101649135  0.001496904658527757  1.0000
  C   C5        1.0  0.09500516592442934  0.5505888308311899  0.04783047247397917  1.0000
  C   C6        1.0  0.9049948345825615  0.44941116877078513  0.9521695275149269  1.0000
  C   C7        1.0  0.27120845840151275  0.8878490161332836  0.555789677340702  1.0000
  C   C8        1.0  0.7287915422393965  0.11215098418823549  0.444210322648566  1.0000
  C   C9        1.0  0.3021231920411724  0.8205261949190723  0.5963529054333601  1.0000
  C   C10       1.0  0.6978768075189823  0.17947380539989435  0.4036470945551837  1.0000
  C   C11       1.0  0.32144282360806686  0.8485878820143283  0.6555348778823009  1.0000
  C   C12       1.0  0.6785571770328422  0.15141211830719073  0.34446512210696706  1.0000
  C   C13       1.0  0.311529667387658  0.9438862009516586  0.6747757514186637  1.0000
  C   C14       1.0  0.6884703321724965  0.05611379936730797  0.32522424856988014  1.0000
  C   C15       1.0  0.2854415915479964  0.011571497394680075  0.6346802132733009  1.0000
  C   C16       1.0  0.7145584080121582  0.9884285029242867  0.36531978671524284  1.0000
  C   C17       1.0  0.2655481375740943  0.9840041061878008  0.5753764748571486  1.0000
  C   C18       1.0  0.7344518629328962  0.015995893414174234  0.42462352513175733  1.0000
  C   C19       1.0  0.3720081533407965  0.7799311502294436  0.46600604740706125  1.0000
  C   C20       1.0  0.6279918460854395  0.22006884936997922  0.5339939525811206  1.0000
  C   C21       1.0  0.3432856536544381  0.7062095550862629  0.4200790657079997  1.0000
  C   C22       1.0  0.656714345771798  0.2937904445131598  0.5799209342801822  1.0000
  C   C23       1.0  0.46150148741454  0.6657603060927213  0.4043085801879373  1.0000
  C   C24       1.0  0.538498512374254  0.3342396942984676  0.5956914202346841  1.0000
  C   C25       1.0  0.6070177229770337  0.6982652039379993  0.43408764830637103  1.0000
  C   C26       1.0  0.39298227766387545  0.30173479638351974  0.565912351682897  1.0000
  C   C27       1.0  0.6353995584166217  0.7703776416233906  0.48054635964747555  1.0000
  C   C28       1.0  0.3646004424529268  0.22962235877035067  0.5194536407758701  1.0000
  C   C29       1.0  0.5182845667517597  0.8115164822182234  0.4966403734721532  1.0000
  C   C30       1.0  0.4817154338891493  0.1884835181032956  0.5033596265171147  1.0000
  C   C31       1.0  0.22494327990402796  0.944561224406631  0.43539959010620133  1.0000
  C   C32       1.0  0.7750567196561265  0.05543877591233572  0.5646004098823424  1.0000
  C   C33       1.0  0.11225861654635412  0.0033054679520826287  0.4336915838951318  1.0000
  C   C34       1.0  0.887741382879882  0.99669453164734  0.5663084160930502  1.0000
  C   C35       1.0  0.10513168451230259  0.07766431213550004  0.3976376044557513  1.0000
  C   C36       1.0  0.8948683150478518  0.9223356881834666  0.6023623955327925  1.0000
  C   C37       1.0  0.20914525402629003  0.0927176395814483  0.36244623113505575  1.0000
  C   C38       1.0  0.790854745399946  0.9072823600179745  0.6375537688531262  1.0000
  C   C39       1.0  0.31957203803873274  0.033228031136125054  0.36308565510192287  1.0000
  C   C40       1.0  0.6804279624682579  0.9667719684658499  0.6369143448869832  1.0000
  C   C41       1.0  0.32863189140709737  0.9594833701928184  0.3996965475277991  1.0000
  C   C42       1.0  0.671368109233812  0.04051663012870075  0.6003034524614691  1.0000
  C   C43       1.0  0.8042375355037847  0.5376482078022757  0.2610799318669991  1.0000
  C   C44       1.0  0.19576246405636982  0.46235179251669095  0.7389200681215446  1.0000
  C   C45       1.0  0.8942293832167924  0.4917508951001578  0.22945702930390433  1.0000
  C   C46       1.0  0.10577061620944367  0.508249104499265  0.7705429706842775  1.0000
  C   C47       1.0  0.9552332769292076  0.41119639865835095  0.24913781807183638  1.0000
  C   C48       1.0  0.04476672285958634  0.588803601732838  0.750862182350785  1.0000
  C   C49       1.0  0.9280505177277154  0.3764518983350795  0.3005702176265395  1.0000
  C   C50       1.0  0.07194948277927528  0.6235481012668956  0.6994297823623665  1.0000
  C   C51       1.0  0.8395867909294544  0.4222459526052271  0.3323426974655945  1.0000
  C   C52       1.0  0.16041320863070027  0.5777540477137397  0.6676573025229493  1.0000
  C   C53       1.0  0.7774718868686726  0.5025910652079958  0.3128174907174658  1.0000
  C   C54       1.0  0.22252811269148187  0.49740893511097084  0.687182509271078  1.0000
  C   C55       1.0  0.5572330732556088  0.6507525972679048  0.2547441721415561  1.0000
  C   C56       1.0  0.44276692617062724  0.349247402331518  0.7452558278466257  1.0000
  C   C57       1.0  0.45484838624143437  0.5661095151740007  0.24982917969324095  1.0000
  C   C58       1.0  0.5451516133187203  0.4338904851449661  0.7501708202953029  1.0000
  C   C59       1.0  0.3088037055970862  0.5722787121548628  0.2551400318230165  1.0000
  C   C60       1.0  0.6911962950438231  0.4277212881666562  0.7448599681662516  1.0000
  C   C61       1.0  0.26404018521720746  0.6623033070176669  0.26577697529778854  1.0000
  C   C62       1.0  0.7359598152897832  0.337696692584308  0.7342230246911176  1.0000
  C   C63       1.0  0.3668477931478509  0.7464799438898797  0.27220578415793123  1.0000
  C   C64       1.0  0.633152206278385  0.253520055709543  0.7277942158302506  1.0000
  C   C65       1.0  0.5126859358568243  0.7410537673719556  0.2664254169067043  1.0000
  C   C66       1.0  0.4873140647840849  0.2589462329495635  0.7335745830825637  1.0000
  C   C67       1.0  0.7050728424665538  0.6368476097340793  0.15885410436598707  1.0000
  C   C68       1.0  0.29492715804043673  0.3631523898678958  0.841145895622919  1.0000
  C   C69       1.0  0.5674025277576416  0.5941949399514835  0.1247569343517194  1.0000
  C   C70       1.0  0.432597471802513  0.4058050603674832  0.8752430656368244  1.0000
  C   C71       1.0  0.543674992363577  0.5906724303490097  0.06435945140186954  1.0000
  C   C72       1.0  0.4563250081434136  0.40932756925296526  0.9356405485870365  1.0000
  C   C73       1.0  0.6554891844261023  0.631795546282165  0.037823542189444455  1.0000
  C   C74       1.0  0.3445108151340523  0.36820445403680163  0.9621764577990994  1.0000
  C   C75       1.0  0.7922135886866972  0.6746784740190279  0.07180818530150584  1.0000
  C   C76       1.0  0.207786411954212  0.3253215263024913  0.9281918146877622  1.0000
  C   C77       1.0  0.8183518638462516  0.6758678421264486  0.13201109114974546  1.0000
  C   C78       1.0  0.18164813679465758  0.3241321581950704  0.8679889088395226  1.0000
  C   C79       1.0  0.5439041597317308  0.9612154441556987  0.13126926463462532  1.0000
  C   C80       1.0  0.4560958396945052  0.03878455544372403  0.8687307353535565  1.0000
  C   C81       1.0  0.5065029498452586  0.8624569749163161  0.1118202881060941  1.0000
  C   C82       1.0  0.49349704971489605  0.1375430254026506  0.8881797118824497  1.0000
  C   C83       1.0  0.3746277268884744  0.811672810117592  0.1204625974809863  1.0000
  C   C84       1.0  0.6253722725377616  0.18832718948183072  0.8795374025071955  1.0000
  C   C85       1.0  0.2801718158456958  0.8581919585733809  0.14891066682317472  1.0000
  C   C86       1.0  0.7198281835805402  0.1418080410260418  0.8510893331650071  1.0000
  C   C87       1.0  0.3177542488864725  0.9562022849015143  0.16888081588711928  1.0000
  C   C88       1.0  0.6822457516205181  0.04379771470046079  0.8311191841017868  1.0000
  C   C89       1.0  0.44885732463595657  0.007846205095305198  0.1598660580888429  1.0000
  C   C90       1.0  0.551142675871034  0.9921537945066699  0.8401339419000632  1.0000
  C   C91       1.0  0.7829666163857417  0.9643034994012893  0.06776705644571492  1.0000
  C   C92       1.0  0.21703338304049424  0.03569650019813331  0.9322329435424668  1.0000
  C   C93       1.0  0.92944071083013  0.9435729229028771  0.07643240675452864  1.0000
  C   C94       1.0  0.07055928873002451  0.056427077416089676  0.923567593234015  1.0000
  C   C95       1.0  0.9790105603119059  0.8969413151954789  0.031239862048359792  1.0000
  C   C96       1.0  0.020989440329003177  0.10305868512604013  0.9687601379409082  1.0000
  C   C97       1.0  0.8833693494112784  0.8701743783670763  0.9773620965012659  1.0000
  C   C98       1.0  0.11663065001495763  0.1298256212323463  0.022637903486915988  1.0000
  C   C99       1.0  0.7362408424215946  0.8884931108618226  0.9688381934194182  1.0000
  C   C100      1.0  0.2637591570046413  0.11150688873760015  0.031161806568763627  1.0000
  C   C101      1.0  0.6862390097263231  0.9355207685847857  0.013823006467898656  1.0000
  C   C102      1.0  0.3137609907806675  0.06447923101718944  0.9861769935210074  1.0000
  C   C103      1.0  0.6937536366792924  0.146737111915183  0.10913761491201537  1.0000
  C   C104      1.0  0.3062463639616167  0.853262888406336  0.8908623850772526  1.0000
  C   C105      1.0  0.6822123170939798  0.17325973207189976  0.05253583337727042  1.0000
  C   C106      1.0  0.3177876824661747  0.8267402682470668  0.9474641666112733  1.0000
  C   C107      1.0  0.6525989620390826  0.26572310954856415  0.040764591068668365  1.0000
  C   C108      1.0  0.3474010384679079  0.7342768900534109  0.9592354089202377  1.0000
  C   C109      1.0  0.6363520974520205  0.33233045681802204  0.08517014683272506  1.0000
  C   C110      1.0  0.36364790210813414  0.6676695435009447  0.9148298531558189  1.0000
  C   C111      1.0  0.6495408533217154  0.30649439177582405  0.1417636178584262  1.0000
  C   C112      1.0  0.3504591461045206  0.6935056078235987  0.8582363821297556  1.0000
  C   C113      1.0  0.6786065836200907  0.2142006273044562  0.153928150867588  1.0000
  C   C114      1.0  0.32139341688689965  0.785799372297519  0.846071849121318  1.0000
  C   C115      1.0  0.3523258697104332  0.4832392713839531  0.4715269207548932  1.0000
  C   C116      1.0  0.6476741298497213  0.5167607289350136  0.5284730792336506  1.0000
  C   C117      1.0  0.45716432809760954  0.44642802302045603  0.44455696477730317  1.0000
  C   C118      1.0  0.5428356725432996  0.553571977301063  0.5554430352119648  1.0000
  C   C119      1.0  0.605265658230387  0.4651139023904932  0.47380596379389506  1.0000
  C   C120      1.0  0.3947343422766034  0.5348860972114817  0.5261940361950109  1.0000
  N   N1        1.0  0.0530491412575757  0.7897826963951377  0.4590703034510569  1.0000
  N   N2        1.0  0.946950859249415  0.2102173032068375  0.5409296965378492  1.0000
  N   N3        1.0  0.866383153238875  0.7397565993203268  0.2609659992360732  1.0000
  N   N4        1.0  0.13361684726811543  0.26024340028164833  0.7390340007528329  1.0000
  N   N5        1.0  0.8290637959250257  0.033893527673972516  0.19123081991780516  1.0000
  N   N6        1.0  0.17093620363512887  0.9661064726449942  0.8087691800707387  1.0000
  F   F1        1.0  0.9315016530373285  0.3034383284736445  0.9945542798077737  1.0000
  F   F2        1.0  0.06849834638890755  0.6965616711257783  0.005445720180408168  1.0000
  F   F3        1.0  0.18617784007837593  0.6032362901711151  0.09492142392745531  1.0000
  F   F4        1.0  0.8138221605625332  0.39676371015040374  0.9050785760618126  1.0000
  F   F5        1.0  0.207015001831241  0.4711230255549101  0.444019757301197  1.0000
  F   F6        1.0  0.7929849988096681  0.528876974766609  0.555980242688071  1.0000
  F   F7        1.0  0.7125150183462948  0.43406304570585624  0.4484620425277311  1.0000
  F   F8        1.0  0.28748498229461444  0.5659369546156628  0.5515379574615371  1.0000
  P   P1        1.0  0.2241052197660492  0.8447339438508683  0.4794194986955299  1.0000
  P   P2        1.0  0.7758947797941054  0.15526605646809835  0.5205805012930139  1.0000
  P   P3        1.0  0.7391245526574817  0.647527255859548  0.2375601232273923  1.0000
  P   P4        1.0  0.26087544798342754  0.35247274446197113  0.7624398767618757  1.0000
  P   P5        1.0  0.7224277097003465  0.026329611712583394  0.12705457779359458  1.0000
  P   P6        1.0  0.2775722897258895  0.9736703878868392  0.8729454221945872  1.0000
  I   I1        1.0  0.1720345537960062  0.37925928668824965  0.11603113171410137  1.0000
  I   I2        1.0  0.8279654467109844  0.6207407129137255  0.8839688682748047  1.0000
  I   I3        1.0  0.9980340562625396  0.6718303066741738  0.502000979816631  1.0000
  I   I4        1.0  0.0019659443783693995  0.3281696936473453  0.497999020172637  1.0000
  I   I5        1.0  0.9509098952599887  0.7606724676307606  0.3539841520701296  1.0000
  I   I6        1.0  0.04909010430016602  0.23932753268820617  0.6460158479184143  1.0000
  I   I7        1.0  0.8491344491513108  0.885847610840815  0.22426655079792557  1.0000
  I   I8        1.0  0.15086555040884375  0.11415238947815164  0.7757334491906182  1.0000
  I   I9        1.0  0.035548020328081464  0.13336487725305593  0.20398923433846552  1.0000
  I   I10       1.0  0.9644519792320732  0.8666351230659107  0.7960107656500782  1.0000
  I   I11       1.0  0.33961675823440396  0.2654709689492332  0.22430717403203285  1.0000
  I   I12       1.0  0.6603832424065051  0.734529031372286  0.7756928259572352  1.0000
  I   I13       1.0  0.3973744761206638  0.3715009301724181  0.36071552672903634  1.0000
  I   I14       1.0  0.6026255243863269  0.628499069429557  0.6392844732598697  1.0000
