data_image0
_chemical_formula_structural       H28B2C38N6O4
_chemical_formula_sum              "H28 B2 C38 N6 O4"
_cell_length_a       14.77922384652332
_cell_length_b       3.730879175241603
_cell_length_c       15.24276080081496
_cell_angle_alpha    90.0
_cell_angle_beta     115.13170062649772
_cell_angle_gamma    90.0

_space_group_name_H-M_alt    "P 1"
_space_group_IT_number       1

loop_
  _space_group_symop_operation_xyz
  'x, y, z'

loop_
  _atom_site_type_symbol
  _atom_site_label
  _atom_site_symmetry_multiplicity
  _atom_site_fract_x
  _atom_site_fract_y
  _atom_site_fract_z
  _atom_site_occupancy
  H   H1        1.0  0.28821083358067767  0.3345004411511621  0.1770802007972583  1.0000
  H   H2        1.0  0.7117891664793181  0.8345004391085332  0.8229197991006942  1.0000
  H   H3        1.0  0.2514798181879556  0.5242530535375323  0.3799714252776685  1.0000
  H   H4        1.0  0.7485201818720402  0.024253052899827664  0.6200285746202842  1.0000
  H   H5        1.0  0.03821848113667222  0.6145159042443478  0.056713381531367665  1.0000
  H   H6        1.0  0.9617815189233236  0.11451590628697661  0.9432866183665851  1.0000
  H   H7        1.0  0.8689624055305976  0.8610883438196463  0.015421899592858893  1.0000
  H   H8        1.0  0.13103759452939823  0.36108834318194183  0.9845781003050937  1.0000
  H   H9        1.0  0.9570092367942622  0.0988849417714282  0.31789618523845886  1.0000
  H   H10       1.0  0.04299076326573364  0.5988849424091327  0.6821038146594938  1.0000
  H   H11       1.0  0.127142126712711  0.8621143298728537  0.3570162076298339  1.0000
  H   H12       1.0  0.8728578733472849  0.3621143292351493  0.6429837922681187  1.0000
  H   H13       1.0  0.6094070487065315  0.6854691427616089  0.14453403136439807  1.0000
  H   H14       1.0  0.39059295135346445  0.1854691421239044  0.8554659685335545  1.0000
  H   H15       1.0  0.4395911755361048  0.756678714961919  0.008715006890758796  1.0000
  H   H16       1.0  0.5604088245238912  0.2566787170045478  0.9912849930071939  1.0000
  H   H17       1.0  0.30501176524156737  0.04404611950194241  0.04170091701918767  1.0000
  H   H18       1.0  0.6949882348184284  0.5440461201396469  0.9582990828787649  1.0000
  H   H19       1.0  0.4290566900889918  0.3107384950157022  0.3615353810267359  1.0000
  H   H20       1.0  0.5709433092952335  0.8107384956534068  0.6384646188731631  1.0000
  H   H21       1.0  0.5944489649855669  0.2605225107395918  0.5067821947389639  1.0000
  H   H22       1.0  0.4055510350744289  0.7605225113772964  0.4932178051589887  1.0000
  H   H23       1.0  0.9064805212309235  0.865451352975242  0.565639602770095  1.0000
  H   H24       1.0  0.09351947882907241  0.36545135501787085  0.4343603971278576  1.0000
  H   H25       1.0  0.9032600514924518  0.6326284875862149  0.40987471040954326  1.0000
  H   H26       1.0  0.09673994856754405  0.13262848694851034  0.5901252894884094  1.0000
  H   H27       1.0  0.7427998236430017  0.6522256191377253  0.26050433651196453  1.0000
  H   H28       1.0  0.25720017641699416  0.15222562118035404  0.739495663385988  1.0000
  B   B1        1.0  0.2010052717045402  0.5449057003751265  0.23297916340145022  1.0000
  B   B2        1.0  0.798994727679685  0.044905699737421985  0.7670208364984487  1.0000
  C   C1        1.0  0.09453903366133155  0.7123201758008959  0.2097984962221112  1.0000
  C   C2        1.0  0.9054609663986644  0.21232017516319135  0.7902015036758415  1.0000
  C   C3        1.0  0.020260258970759254  0.7183819346887419  0.11409368182445384  1.0000
  C   C4        1.0  0.9797397410892367  0.21838193405103726  0.885906318073499  1.0000
  C   C5        1.0  0.9251268379536123  0.85463462637959  0.09051894341023271  1.0000
  C   C6        1.0  0.0748731621063835  0.3546346284222188  0.9094810564877199  1.0000
  C   C7        1.0  0.9025818847991723  0.9901126400751872  0.1650173317634933  1.0000
  C   C8        1.0  0.09741811526082364  0.49011263943748257  0.8349826681344594  1.0000
  C   C9        1.0  0.9757084736683398  0.9891217154629579  0.26140151654636473  1.0000
  C   C10       1.0  0.02429152671088327  0.48912171482525346  0.7385984840762341  1.0000
  C   C11       1.0  0.07024123130948469  0.8539727796984146  0.28250203972557886  1.0000
  C   C12       1.0  0.9297587690697385  0.35397277906071006  0.71749796089702  1.0000
  C   C13       1.0  0.8073541803092897  0.13856244218000516  0.1448328277558129  1.0000
  C   C14       1.0  0.19264581975070616  0.6385624428177098  0.8551671721421398  1.0000
  C   C15       1.0  0.549265688296065  0.8088163830190473  0.1572877862608703  1.0000
  C   C16       1.0  0.45073431176393075  0.3088163823813429  0.8427122136370823  1.0000
  C   C17       1.0  0.45562180576834205  0.8472812443183166  0.0816931196726774  1.0000
  C   C18       1.0  0.5443781942916538  0.34728124368061203  0.9183068802252753  1.0000
  C   C19       1.0  0.37948752585145185  0.007410087194316525  0.10008066298538863  1.0000
  C   C20       1.0  0.6205124742085442  0.5074100851516877  0.8999193369125641  1.0000
  C   C21       1.0  0.4833742009395703  0.08066701060628977  0.2629561885916089  1.0000
  C   C22       1.0  0.5166257991204255  0.5806670112439943  0.7370438113063438  1.0000
  C   C23       1.0  0.4949065049808078  0.19856784559420246  0.3565594306551144  1.0000
  C   C24       1.0  0.505093495079188  0.698567846231907  0.6434405692428381  1.0000
  C   C25       1.0  0.5848502858192298  0.17013115412907892  0.43530926340975473  1.0000
  C   C26       1.0  0.4151497145599934  0.6701311547667834  0.5646907372128441  1.0000
  C   C27       1.0  0.6698465468238577  0.022818522391437935  0.4260067803303671  1.0000
  C   C28       1.0  0.3301534532361381  0.5228185230291424  0.5739932195675855  1.0000
  C   C29       1.0  0.8376722678213127  0.8720835725775821  0.4987511658084313  1.0000
  C   C30       1.0  0.16232773223868313  0.37208357193987757  0.5012488340895214  1.0000
  C   C31       1.0  0.8358042054908735  0.743660365206099  0.4115509003980678  1.0000
  C   C32       1.0  0.16419579456912226  0.24366036456839452  0.5884490994998848  1.0000
  C   C33       1.0  0.7467015385916814  0.7554192155840824  0.3288768781732693  1.0000
  C   C34       1.0  0.2532984614683144  0.25541921494637787  0.6711231217246832  1.0000
  C   C35       1.0  0.6609440769058925  0.8998854914090284  0.3339698097161913  1.0000
  C   C36       1.0  0.3390559231541034  0.39988549345165714  0.6660301901817615  1.0000
  C   C37       1.0  0.565545561828279  0.9272092146420109  0.2507343801201711  1.0000
  C   C38       1.0  0.4344544382317168  0.4272092140043064  0.7492656197777816  1.0000
  N   N1        1.0  0.7303074336259566  0.2659599395726192  0.13144445342482758  1.0000
  N   N2        1.0  0.26969256675326636  0.7659599402103238  0.8685555471977712  1.0000
  N   N3        1.0  0.39230133331330563  0.12079157722142433  0.18710876481082306  1.0000
  N   N4        1.0  0.6076986660709196  0.620791577859129  0.8128912350890759  1.0000
  N   N5        1.0  0.758052289352546  0.004603464543685683  0.5066762624974819  1.0000
  N   N6        1.0  0.24194771070744997  0.5046034651813902  0.49332373740047075  1.0000
  O   O1        1.0  0.2206948401966726  0.45474985125727935  0.15627212945125624  1.0000
  O   O2        1.0  0.7793051601825505  0.9547498492146504  0.8437278711713426  1.0000
  O   O3        1.0  0.2712008617192249  0.4836755829497326  0.3257803648127789  1.0000
  O   O4        1.0  0.7287991386599981  0.9836755835874372  0.6742196358098199  1.0000
