data_image0
_chemical_formula_structural       H60B4C80N8O8
_chemical_formula_sum              "H60 B4 C80 N8 O8"
_cell_length_a       10.8077764571623
_cell_length_b       7.17158958279964
_cell_length_c       20.757227312499115
_cell_angle_alpha    90.0
_cell_angle_beta     98.0717706302798
_cell_angle_gamma    90.0

_space_group_name_H-M_alt    "P 1"
_space_group_IT_number       1

loop_
  _space_group_symop_operation_xyz
  'x, y, z'

loop_
  _atom_site_type_symbol
  _atom_site_label
  _atom_site_symmetry_multiplicity
  _atom_site_fract_x
  _atom_site_fract_y
  _atom_site_fract_z
  _atom_site_occupancy
  H   H1        1.0  0.3281150004944745  0.79524858110656  0.5412838288835576  1.0000
  H   H2        1.0  0.17188499949497787  0.29524858130174964  0.9587161712482005  1.0000
  H   H3        1.0  0.6718849995612483  0.2047514198974518  0.4587161711184061  1.0000
  H   H4        1.0  0.8281150005607448  0.7047514197022622  0.04128382875376318  1.0000
  H   H5        1.0  0.6164076169466013  0.9773226993929355  0.5207895337239681  1.0000
  H   H6        1.0  0.8835923836681587  0.4773226981937342  0.9792104665204525  1.0000
  H   H7        1.0  0.38359238310912147  0.022677301611076263  0.47921046627799574  1.0000
  H   H8        1.0  0.11640761638756386  0.5226773014158866  0.020789533481511212  1.0000
  H   H9        1.0  0.35618911955010524  0.47726197664867465  0.5520443265234165  1.0000
  H   H10       1.0  0.1438108804393471  0.9772619764534851  0.9479556736083415  1.0000
  H   H11       1.0  0.6438108805056175  0.5227380229609462  0.44795567347854715  1.0000
  H   H12       1.0  0.8561891196163756  0.022738023156135732  0.05204432639362211  1.0000
  H   H13       1.0  0.37676464088334555  0.1754981661274415  0.611417198929039  1.0000
  H   H14       1.0  0.12323535910610685  0.675498165932252  0.8885828012027193  1.0000
  H   H15       1.0  0.6232353591723772  0.8245018348765704  0.3885828010729248  1.0000
  H   H16       1.0  0.8767646409496158  0.32450183367736896  0.11141719879924451  1.0000
  H   H17       1.0  0.7383042070155733  0.3472004401885982  0.7091439519885925  1.0000
  H   H18       1.0  0.7616957925368347  0.8472004399934085  0.7908560477728782  1.0000
  H   H19       1.0  0.26169579211589084  0.6527995594210226  0.29085604801698844  1.0000
  H   H20       1.0  0.23830420738079444  0.15279955961621222  0.2091439517425185  1.0000
  H   H21       1.0  0.7178686077003389  0.6457842541781423  0.6485133192720838  1.0000
  H   H22       1.0  0.7821313918520691  0.14578425437333192  0.8514866804893869  1.0000
  H   H23       1.0  0.2821313923553839  0.3542157454314785  0.35148668072988  1.0000
  H   H24       1.0  0.21786860727939483  0.8542157452362888  0.14851331951619395  1.0000
  H   H25       1.0  0.3551632745689216  0.8513369148512488  0.6576184458610588  1.0000
  H   H26       1.0  0.14483672542053072  0.35133691504643844  0.8423815542706994  1.0000
  H   H27       1.0  0.644836725486801  0.14866308475837195  0.34238155414090493  1.0000
  H   H28       1.0  0.855163274635192  0.6486630845631823  0.1576184457312644  1.0000
  H   H29       1.0  0.30642637069546846  0.9892033193052003  0.7597709845248045  1.0000
  H   H30       1.0  0.1935736292939839  0.4892033195003899  0.7402290156069536  1.0000
  H   H31       1.0  0.6935736284359956  0.010796680304420487  0.24022901548077635  1.0000
  H   H32       1.0  0.8064263707617388  0.5107966801092308  0.2597709843950102  1.0000
  H   H33       1.0  0.08450295524732672  0.04273731318020446  0.7770543471372676  1.0000
  H   H34       1.0  0.41549704474212557  0.5427373129850149  0.7229456529944905  1.0000
  H   H35       1.0  0.9154970438841373  0.9572626864294164  0.2229456528683133  1.0000
  H   H36       1.0  0.5845029553135971  0.45726268662460595  0.27705434700747317  1.0000
  H   H37       1.0  0.9113053368721712  0.9579635631237625  0.6908836532531731  1.0000
  H   H38       1.0  0.5886946628183303  0.45796356331895216  0.8091163469948646  1.0000
  H   H39       1.0  0.08869466318355149  0.04203643648585829  0.3091163467487906  1.0000
  H   H40       1.0  0.41130533631313376  0.5420364376850597  0.1908836530107163  1.0000
  H   H41       1.0  0.840709873362059  0.8435684111803722  0.5768133560529027  1.0000
  H   H42       1.0  0.6592901272527012  0.3435684113755618  0.9231866441915179  1.0000
  H   H43       1.0  0.1592901266936637  0.15643158842924862  0.42318664394906086  1.0000
  H   H44       1.0  0.3407098728030216  0.656431588234059  0.07681335581044599  1.0000
  H   H45       1.0  0.7807047595798626  0.7450138394442575  0.46341375503226817  1.0000
  H   H46       1.0  0.7192952405421306  0.2450138396394471  0.03658624483990116  1.0000
  H   H47       1.0  0.21929524047586008  0.2549861601653633  0.5365862449696955  1.0000
  H   H48       1.0  0.28070475951359225  0.7549861613645648  0.9634137551620626  1.0000
  H   H49       1.0  0.8421067909312417  0.6432475432035444  0.35741112236867945  1.0000
  H   H50       1.0  0.6578932093288449  0.143247543398734  0.14258887799005698  1.0000
  H   H51       1.0  0.15789320912448107  0.35675245780046744  0.6425888776332844  1.0000
  H   H52       1.0  0.3421067907268779  0.8567524576052777  0.8574111220119068  1.0000
  H   H53       1.0  0.06694797132957507  0.6061495585896314  0.34591050125359674  1.0000
  H   H54       1.0  0.43305202922946234  0.10614955878482096  0.15408949898886007  1.0000
  H   H55       1.0  0.9330520287261477  0.3938504424143805  0.654089498748367  1.0000
  H   H56       1.0  0.5669479708262604  0.8938504422191909  0.8459105010131037  1.0000
  H   H57       1.0  0.23151403673467966  0.6662769829244278  0.439730825476588  1.0000
  H   H58       1.0  0.26848596290009913  0.16627698311961744  0.060269174769486046  1.0000
  H   H59       1.0  0.7684859633210431  0.33372301668519294  0.5602691745253758  1.0000
  H   H60       1.0  0.7315140371556236  0.8337230164900034  0.9397308252324778  1.0000
  B   B1        1.0  0.5251757827382522  0.7712837964495848  0.5557822202626338  1.0000
  B   B2        1.0  0.9748242177384144  0.2712837966447744  0.9442177794952197  1.0000
  B   B3        1.0  0.47482421731747054  0.22871620316003596  0.44421777973933  1.0000
  B   B4        1.0  0.02517578231730824  0.7287162043592373  0.05578222050674398  1.0000
  C   C1        1.0  0.5356276203188777  0.5835602611780026  0.595766471606449  1.0000
  C   C2        1.0  0.9643723792335303  0.08356025997880116  0.9042335281550216  1.0000
  C   C3        1.0  0.46437237973684503  0.4164397398260093  0.4042335283955146  1.0000
  C   C4        1.0  0.03562762082219239  0.9164397396308197  0.09576647184694217  1.0000
  C   C5        1.0  0.44017771397071803  0.4489922328688229  0.5862853876233398  1.0000
  C   C6        1.0  0.05982228601873433  0.9489922326736333  0.9137146125084183  1.0000
  C   C7        1.0  0.5598222860850047  0.5510077667407979  0.41371461237862395  1.0000
  C   C8        1.0  0.9401777140369885  0.05100776693598753  0.0862853874935454  1.0000
  C   C9        1.0  0.45059832662299226  0.2796699611492582  0.6192359671545125  1.0000
  C   C10       1.0  0.049401673366460085  0.7796699623484596  0.8807640329772457  1.0000
  C   C11       1.0  0.5494016734327305  0.7203300384603626  0.38076403284745136  1.0000
  C   C12       1.0  0.9505983266892628  0.2203300386555522  0.119235967024718  1.0000
  C   C13       1.0  0.5584542398142047  0.243167921123453  0.6636293014817143  1.0000
  C   C14       1.0  0.9415457598762967  0.7431679209282634  0.8363706987663234  1.0000
  C   C15       1.0  0.44154576024151804  0.7568320784861677  0.33637069852024953  1.0000
  C   C16       1.0  0.058454240179425916  0.2568320786813574  0.16362930123564023  1.0000
  C   C17       1.0  0.654990387760903  0.3758566185193962  0.674487471326387  1.0000
  C   C18       1.0  0.8450096127157638  0.8758566183242067  0.8255125284314665  1.0000
  C   C19       1.0  0.3450096122948198  0.6241433824846156  0.3255125286755768  1.0000
  C   C20       1.0  0.15499038733995898  0.12414338267980518  0.17448747157049718  1.0000
  C   C21       1.0  0.6427849526764745  0.5432910284415607  0.6404080912537663  1.0000
  C   C22       1.0  0.8572150468759335  0.0432910286367504  0.8595919085077043  1.0000
  C   C23       1.0  0.3572150464549896  0.456708972562451  0.35959190875181457  1.0000
  C   C24       1.0  0.1427849531797892  0.9567089723672614  0.14040809149425937  1.0000
  C   C25       1.0  0.568825223367014  0.07284267371531136  0.6991724510186056  1.0000
  C   C26       1.0  0.931174776185394  0.5728426735201217  0.8008275487428652  1.0000
  C   C27       1.0  0.4311747766887088  0.9271573258943095  0.30082754898335823  1.0000
  C   C28       1.0  0.06882522387032862  0.427157326089499  0.1991724512590986  1.0000
  C   C29       1.0  0.1612182097877946  0.833152856980345  0.613129813521912  1.0000
  C   C30       1.0  0.33878179020165783  0.3331528571755346  0.8868701866098463  1.0000
  C   C31       1.0  0.8387817902679281  0.16684714262927583  0.3868701864800517  1.0000
  C   C32       1.0  0.661218209854065  0.6668471424340862  0.1131298133921176  1.0000
  C   C33       1.0  0.2585423796172168  0.8762702741763366  0.6645794045651077  1.0000
  C   C34       1.0  0.2414576203722355  0.37627027437152627  0.8354205955666504  1.0000
  C   C35       1.0  0.7414576204385058  0.12372972543328413  0.33542059543685604  1.0000
  C   C36       1.0  0.7585423796834873  0.6237297252380944  0.1645794044353133  1.0000
  C   C37       1.0  0.2304900528476409  0.9511203410691003  0.7217397344638005  1.0000
  C   C38       1.0  0.26950994714181153  0.45112034126428996  0.7782602656679577  1.0000
  C   C39       1.0  0.7695099472080819  0.04887965854052047  0.27826026553816324  1.0000
  C   C40       1.0  0.7304900529139113  0.5488796583453308  0.22173973433400607  1.0000
  C   C41       1.0  0.10448187278432633  0.9813026901147216  0.7316429670417397  1.0000
  C   C42       1.0  0.395518127205126  0.4813026903099112  0.7683570330900185  1.0000
  C   C43       1.0  0.8955181272713963  0.018697309494899218  0.26835703296022406  1.0000
  C   C44       1.0  0.6044818728505967  0.5186973106941006  0.23164296691194527  1.0000
  C   C45       1.0  0.008251277179310925  0.9345561541997192  0.6838869029841339  1.0000
  C   C46       1.0  0.49174872267204794  0.43455615439490886  0.8161130966610572  1.0000
  C   C47       1.0  0.9917487228764119  0.06544384540990156  0.3161130970178298  1.0000
  C   C48       1.0  0.5082512773836748  0.5654438452147119  0.18388690334090657  1.0000
  C   C49       1.0  0.03318851897812514  0.8614350080513521  0.6232511530906837  1.0000
  C   C50       1.0  0.46681148101132725  0.36143500685215063  0.8767488470410745  1.0000
  C   C51       1.0  0.9668114801533391  0.13856499295265973  0.3767488469148973  1.0000
  C   C52       1.0  0.5331885190443956  0.6385649927574701  0.12325115296088925  1.0000
  C   C53       1.0  0.9390043771676042  0.8231850933242304  0.5715898822952068  1.0000
  C   C54       1.0  0.5609956223848038  0.32318509351942004  0.9284101174662639  1.0000
  C   C55       1.0  0.060995622888118516  0.17681490628539037  0.4284101177067569  1.0000
  C   C56       1.0  0.4390043776709189  0.6768149060902007  0.07158988253569988  1.0000
  C   C57       1.0  0.9700282993555829  0.762419771359183  0.5118852191675131  1.0000
  C   C58       1.0  0.5299717003349185  0.2624197715543727  0.9881147810805245  1.0000
  C   C59       1.0  0.02997170070013979  0.23758022825043776  0.48811478083445076  1.0000
  C   C60       1.0  0.4700282997208041  0.7375802280552481  0.01188521892143911  1.0000
  C   C61       1.0  0.8783032403692772  0.7259176058381874  0.45721449055946545  1.0000
  C   C62       1.0  0.6216967598908094  0.2259176060333771  0.04278550979927092  1.0000
  C   C63       1.0  0.12169675968644553  0.27408239377143334  0.5427855094424984  1.0000
  C   C64       1.0  0.3783032401649133  0.7740823935762438  0.9572144902026928  1.0000
  C   C65       1.0  0.912984378824638  0.6696833170039171  0.3991544268513081  1.0000
  C   C66       1.0  0.587015621297355  0.16968331580471563  0.10084557302086124  1.0000
  C   C67       1.0  0.08701562123108462  0.3303166840000948  0.6008455731506557  1.0000
  C   C68       1.0  0.4129843787583677  0.8303166838049052  0.8991544269811025  1.0000
  C   C69       1.0  0.041503178835204386  0.6484169494519048  0.3928059364250545  1.0000
  C   C70       1.0  0.458496821723833  0.1484169496470943  0.10719406381740224  1.0000
  C   C71       1.0  0.9584968212205184  0.3515830501577161  0.6071940635769092  1.0000
  C   C72       1.0  0.5415031783318897  0.8515830513569176  0.8928059361845615  1.0000
  C   C73       1.0  0.1329870459758404  0.6822812716075505  0.4445065236747207  1.0000
  C   C74       1.0  0.36701295458319705  0.18228127180274  0.055493476567736066  1.0000
  C   C75       1.0  0.8670129540798824  0.3177187280020704  0.5554934763272431  1.0000
  C   C76       1.0  0.6329870454725256  0.8177187292012718  0.9445065234342276  1.0000
  C   C77       1.0  0.10013206853677944  0.7391874045210688  0.5055327738375832  1.0000
  C   C78       1.0  0.39986793145267296  0.2391874033218674  0.994467226294175  1.0000
  C   C79       1.0  0.8998679315189433  0.260812596482943  0.49446722616438055  1.0000
  C   C80       1.0  0.6001320686030498  0.7608125962877534  0.005532773707788808  1.0000
  N   N1        1.0  0.5761005145319787  0.9335723081613287  0.728724629520118  1.0000
  N   N2        1.0  0.9238994851585227  0.43357230835651833  0.7712753707279197  1.0000
  N   N3        1.0  0.4238994855237439  0.06642769144829205  0.2712753704818458  1.0000
  N   N4        1.0  0.07610051489720004  0.5664276912531024  0.22872462927404397  1.0000
  N   N5        1.0  0.19122648641642892  0.7725753873713822  0.5557282135696862  1.0000
  N   N6        1.0  0.30877351357302346  0.27257538756657174  0.944271786562072  1.0000
  N   N7        1.0  0.8087735136392938  0.2274246136326297  0.44427178643227755  1.0000
  N   N8        1.0  0.6912264864826992  0.7274246134374401  0.055728213439891754  1.0000
  O   O1        1.0  0.41244380003396086  0.842917130185263  0.528108828715537  1.0000
  O   O2        1.0  0.08755619981739793  0.3429171303804527  0.971891170929654  1.0000
  O   O3        1.0  0.5875562000217618  0.15708286942435776  0.4718911712864267  1.0000
  O   O4        1.0  0.9124438002383248  0.6570828692291681  0.028108829072309636  1.0000
  O   O5        1.0  0.6333547478756005  0.8619844301779961  0.5480968590306099  1.0000
  O   O6        1.0  0.8666452527391595  0.3619844303731857  0.9519031412138108  1.0000
  O   O7        1.0  0.3666452521801221  0.13801556943162469  0.45190314097135387  1.0000
  O   O8        1.0  0.1333547473165632  0.6380155692364351  0.048096858788153056  1.0000
