data_image0
_chemical_formula_structural       H30C24N2O6Br2
_chemical_formula_sum              "H30 C24 N2 O6 Br2"
_cell_length_a       5.0066615625406055
_cell_length_b       8.23140922142693
_cell_length_c       15.997957456596296
_cell_angle_alpha    102.31391006843646
_cell_angle_beta     91.5562873490894
_cell_angle_gamma    104.3256057224192

_space_group_name_H-M_alt    "P 1"
_space_group_IT_number       1

loop_
  _space_group_symop_operation_xyz
  'x, y, z'

loop_
  _atom_site_type_symbol
  _atom_site_label
  _atom_site_symmetry_multiplicity
  _atom_site_fract_x
  _atom_site_fract_y
  _atom_site_fract_z
  _atom_site_occupancy
  H   H1        1.0  0.5566373009458853  0.056754567992757604  0.2226120332640842  1.0000
  H   H2        1.0  0.4433626999959121  0.9432454329453751  0.7773879665247426  1.0000
  H   H3        1.0  0.664470948614315  0.8680437073272881  0.18245704737677634  1.0000
  H   H4        1.0  0.33552904980313036  0.13195629236780085  0.817542952406602  1.0000
  H   H5        1.0  0.6376740254894515  0.14244627306702284  0.07796688476327547  1.0000
  H   H6        1.0  0.3623259749205119  0.8575537266159946  0.9220331150225849  1.0000
  H   H7        1.0  0.7444977654062648  0.9526242605863064  0.039600138588372906  1.0000
  H   H8        1.0  0.25550223500369856  0.047375739096710945  0.9603998611974874  1.0000
  H   H9        1.0  0.09800803511513756  0.8799951764057495  0.25053446927069134  1.0000
  H   H10       1.0  0.9019919652948258  0.12000482327726782  0.7494655305151691  1.0000
  H   H11       1.0  0.19069121989225687  0.6904846732785266  0.20441106667754258  1.0000
  H   H12       1.0  0.8093087805177065  0.3095153264044909  0.7955889331083177  1.0000
  H   H13       1.0  0.17516647626133017  0.9641311351967111  0.10348357976969833  1.0000
  H   H14       1.0  0.8248335241486333  0.03586886448630623  0.8965164200161619  1.0000
  H   H15       1.0  0.2795383400694336  0.7748266996641135  0.06414706317820797  1.0000
  H   H16       1.0  0.7204616585125388  0.22517330031765906  0.9358529372472507  1.0000
  H   H17       1.0  0.2825930803453744  0.7270045732311857  0.42769252346770437  1.0000
  H   H18       1.0  0.7174069202291161  0.2729954267385156  0.5723074769602363  1.0000
  H   H19       1.0  0.7717061653956847  0.5451948075792851  0.23611227664522497  1.0000
  H   H20       1.0  0.22829383517880567  0.45480519239041617  0.7638877237827159  1.0000
  H   H21       1.0  0.8016294679789377  0.4782283864254865  0.3783913363669112  1.0000
  H   H22       1.0  0.19837053243102562  0.521771613257531  0.6216086634189492  1.0000
  H   H23       1.0  0.9750451345588593  0.1403767895792804  0.32573321887108697  1.0000
  H   H24       1.0  0.02495486601563101  0.8596232103904208  0.6742667815568537  1.0000
  H   H25       1.0  0.9473106100473954  0.2051091007270988  0.18254868787618853  1.0000
  H   H26       1.0  0.0526893903625679  0.7948908989559186  0.8174513119096717  1.0000
  H   H27       1.0  0.010508488648113764  0.20926839750854884  0.46536547713428855  1.0000
  H   H28       1.0  0.9894915117618497  0.7907316021744686  0.5346345226515719  1.0000
  H   H29       1.0  0.22941215730963657  0.17066211619922986  0.543918314777467  1.0000
  H   H30       1.0  0.7705878431003267  0.8293378834837875  0.4560816850083933  1.0000
  C   C1        1.0  0.48232167103537865  0.9211923489149652  0.1877646904191763  1.0000
  C   C2        1.0  0.5176783295391119  0.07880765105473615  0.8122353100087645  1.0000
  C   C3        1.0  0.5618838792754213  0.005574713362006302  0.04483343057748324  1.0000
  C   C4        1.0  0.4381161211345422  0.9944252863210111  0.9551665692083771  1.0000
  C   C5        1.0  0.2768187068801845  0.8248048890535272  0.23971117769904318  1.0000
  C   C6        1.0  0.7231812942261399  0.17519511217128927  0.7602888227318642  1.0000
  C   C7        1.0  0.3932791612538556  0.8188692408921486  0.3264155727450953  1.0000
  C   C8        1.0  0.6067208373281169  0.18113075908962417  0.6735844276803635  1.0000
  C   C9        1.0  0.35731654726573653  0.9109659765352053  0.09818423282778932  1.0000
  C   C10       1.0  0.6426834533087539  0.08903402343449587  0.9018157676001515  1.0000
  C   C11       1.0  0.3911715745378202  0.3062331101851898  0.36252774474865407  1.0000
  C   C12       1.0  0.6088284260366702  0.6937668897845115  0.6374722556792867  1.0000
  C   C13       1.0  0.35752017180317147  0.3771208421308274  0.20072656232049058  1.0000
  C   C14       1.0  0.6424798286067919  0.6228791575521899  0.7992734374653697  1.0000
  C   C15       1.0  0.5978132504344641  0.45628655002566887  0.25529032400326723  1.0000
  C   C16       1.0  0.40218674997549925  0.5437134496573485  0.744709675782593  1.0000
  C   C17       1.0  0.6135172916996721  0.41906718721340463  0.3359366248673497  1.0000
  C   C18       1.0  0.38648270671777346  0.5809328124816844  0.6640633749160287  1.0000
  C   C19       1.0  0.14958499732684763  0.23095528848575825  0.3072318126846163  1.0000
  C   C20       1.0  0.8504150037794768  0.7690447127390584  0.6927681877462911  1.0000
  C   C21       1.0  0.4258710452251555  0.26399406037997236  0.4475013578257711  1.0000
  C   C22       1.0  0.5741289553493348  0.7360059395897289  0.5524986426021696  1.0000
  C   C23       1.0  0.13279208249591865  0.2654381294393796  0.22597215368933443  1.0000
  C   C24       1.0  0.8672079184458785  0.7345618714987532  0.7740278460994925  1.0000
  N   N1        1.0  0.20217459438393928  0.20380209546602315  0.48619396033805795  1.0000
  N   N2        1.0  0.797825404033506  0.7961979042290658  0.5138060394453203  1.0000
  O   O1        1.0  0.20589669702062566  0.7262713184954123  0.36668932910381025  1.0000
  O   O2        1.0  0.7941033033893377  0.273728681187605  0.63331067068205  1.0000
  O   O3        1.0  0.63450972928746  0.8907781909288218  0.3566238685570072  1.0000
  O   O4        1.0  0.36549027112250343  0.10922180875419561  0.6433761312288532  1.0000
  O   O5        1.0  0.6686173597517889  0.28498833005507046  0.4806305587640383  1.0000
  O   O6        1.0  0.33138264082270164  0.7150116699146308  0.5193694416639024  1.0000
  Br  Br1       1.0  0.3322445429880366  0.41951876674113714  0.08818044059940648  1.0000
  Br  Br2       1.0  0.6677554574219268  0.5804812329418803  0.9118195591864539  1.0000
