data_image0
_chemical_formula_structural       H64C72N8O24Br8
_chemical_formula_sum              "H64 C72 N8 O24 Br8"
_cell_length_a       9.251519626470845
_cell_length_b       10.118539887851062
_cell_length_c       20.228358672186147
_cell_angle_alpha    90.0
_cell_angle_beta     100.34215202088988
_cell_angle_gamma    90.0

_space_group_name_H-M_alt    "P 1"
_space_group_IT_number       1

loop_
  _space_group_symop_operation_xyz
  'x, y, z'

loop_
  _atom_site_type_symbol
  _atom_site_label
  _atom_site_symmetry_multiplicity
  _atom_site_fract_x
  _atom_site_fract_y
  _atom_site_fract_z
  _atom_site_occupancy
  H   H1        1.0  0.29110765851169984  0.8191552172415574  0.15109275739343364  1.0000
  H   H2        1.0  0.7088923406443947  0.31915521664122676  0.34890724274070006  1.0000
  H   H3        1.0  0.7088923406598459  0.18084478297081893  0.8489072425256776  1.0000
  H   H4        1.0  0.29110765871430333  0.6808447825828646  0.6510927576809091  1.0000
  H   H5        1.0  0.0712004370210657  0.8511491297613559  0.20233147350834071  1.0000
  H   H6        1.0  0.9287995632177272  0.35114912916102536  0.2976685266304859  1.0000
  H   H7        1.0  0.9287995632331787  0.14885087045102033  0.7976685264154635  1.0000
  H   H8        1.0  0.07120043703651703  0.6488508700630661  0.7023314732933184  1.0000
  H   H9        1.0  0.0878303898652769  0.2716094614895738  0.16560111278391237  1.0000
  H   H10       1.0  0.9121696103735161  0.7716094611016195  0.3343988873549142  1.0000
  H   H11       1.0  0.9121696105761196  0.7283905387228025  0.8343988876423896  1.0000
  H   H12       1.0  0.08783038988072825  0.22839053911075674  0.66560111256889  1.0000
  H   H13       1.0  0.31110828440775  0.23881684974147022  0.1158771396368848  1.0000
  H   H14       1.0  0.6888917158310428  0.7388168493535159  0.3841228605019418  1.0000
  H   H15       1.0  0.6888917160336464  0.7611831504709061  0.8841228607894174  1.0000
  H   H16       1.0  0.3111082844232014  0.2611831498705755  0.6158771394218624  1.0000
  H   H17       1.0  0.41479388494480607  0.8185553797089418  0.07091902733524182  1.0000
  H   H18       1.0  0.5852061152939868  0.31855537910861126  0.42908097280358476  1.0000
  H   H19       1.0  0.5852061153094382  0.18144462050343443  0.9290809725885624  1.0000
  H   H20       1.0  0.4147938849602574  0.681444621103765  0.5709190271202195  1.0000
  H   H21       1.0  0.5859123326179602  0.88916115266812  0.06161509894584372  1.0000
  H   H22       1.0  0.4140876674336806  0.3891611530560743  0.438384900690485  1.0000
  H   H23       1.0  0.414087667636284  0.1108388465559714  0.9383849009779603  1.0000
  H   H24       1.0  0.5859123328205637  0.610838847156302  0.5616150992333192  1.0000
  H   H25       1.0  0.21001188138069446  0.24866343147206413  0.35498797027300505  1.0000
  H   H26       1.0  0.7899881188580985  0.7486634310841098  0.1450120298658215  1.0000
  H   H27       1.0  0.7899881188735498  0.7513365687403121  0.6450120296507992  1.0000
  H   H28       1.0  0.21001188139614582  0.25133656813998156  0.8549879700579827  1.0000
  H   H29       1.0  0.43035912865471226  0.2131736954053849  0.304639357577864  1.0000
  H   H30       1.0  0.5696408715840807  0.7131736950174307  0.19536064256096258  1.0000
  H   H31       1.0  0.5696408705168335  0.7868263048069913  0.6953606423412473  1.0000
  H   H32       1.0  0.43035912885731586  0.2868263051949457  0.8046393578653396  1.0000
  H   H33       1.0  0.17232994207423133  0.827774776087663  0.38266295830559977  1.0000
  H   H34       1.0  0.8276700581645615  0.3277747764756173  0.11733704183322677  1.0000
  H   H35       1.0  0.8276700581800129  0.17222522313642838  0.6173370416182044  1.0000
  H   H36       1.0  0.17232994208968266  0.6722252237367589  0.8826629580905774  1.0000
  H   H37       1.0  0.39534768135614995  0.7918691914848673  0.3329142235751812  1.0000
  H   H38       1.0  0.6046523177999445  0.29186919088453667  0.16708577655895251  1.0000
  H   H39       1.0  0.6046523178153959  0.20813080872750903  0.6670857763439301  1.0000
  H   H40       1.0  0.39534768137160137  0.7081308083395547  0.8329142233601589  1.0000
  H   H41       1.0  0.08278252132568059  0.25148962184310125  0.4305502169665431  1.0000
  H   H42       1.0  0.9172174789131123  0.7514896224434318  0.06944978317228345  1.0000
  H   H43       1.0  0.9172174789285636  0.7485103773809901  0.569449782957261  1.0000
  H   H44       1.0  0.08278252134113193  0.24851037776894444  0.9305502167515207  1.0000
  H   H45       1.0  0.9078499906752294  0.18682958025097882  0.4379626646613724  1.0000
  H   H46       1.0  0.09215000956356359  0.6868295798630245  0.06203733547745411  1.0000
  H   H47       1.0  0.09215000957901492  0.8131704199613975  0.5620373352624317  1.0000
  H   H48       1.0  0.9078499906906806  0.3131704203493518  0.9379626644463501  1.0000
  H   H49       1.0  0.5198609630437497  0.6513099126004063  0.9983793493279852  1.0000
  H   H50       1.0  0.48013903614324743  0.15130991298836058  0.5016206503761037  1.0000
  H   H51       1.0  0.4801390361277962  0.34869008761197  0.0016206505911261061  1.0000
  H   H52       1.0  0.5198609630282983  0.8486900872240156  0.4983793495430076  1.0000
  H   H53       1.0  0.17178980471500183  0.4635510362153786  0.06475956534086935  1.0000
  H   H54       1.0  0.8282101955237912  0.9635510358274242  0.4352404347979572  1.0000
  H   H55       1.0  0.8282101955392425  0.5364489639969977  0.9352404345829348  1.0000
  H   H56       1.0  0.17178980473045313  0.03644896438495204  0.5647595651258469  1.0000
  H   H57       1.0  0.006460730351962358  0.14747578667863673  0.02047748824684205  1.0000
  H   H58       1.0  0.9935392696996783  0.6474757872789674  0.47952251138948654  1.0000
  H   H59       1.0  0.9935392699022819  0.8525242125454546  0.9795225116769621  1.0000
  H   H60       1.0  0.00646073055456595  0.35252421293340896  0.5204774885343176  1.0000
  H   H61       1.0  0.6649686993578189  0.11033712891130458  0.07514278043465335  1.0000
  H   H62       1.0  0.33503130088097405  0.6103371295116352  0.42485721970417323  1.0000
  H   H63       1.0  0.33503130089642535  0.8896628713010716  0.9248572194891509  1.0000
  H   H64       1.0  0.6649686993732702  0.3896628707007411  0.575142780219631  1.0000
  C   C1        1.0  0.0672854873016552  0.06270070553971399  0.18690233195875366  1.0000
  C   C2        1.0  0.9327145118544393  0.5627007051517596  0.31309766817538004  1.0000
  C   C3        1.0  0.9327145118698904  0.9372992946726623  0.8130976679603575  1.0000
  C   C4        1.0  0.06728548750425879  0.43729929506061654  0.6869023322462292  1.0000
  C   C5        1.0  0.2468929625845076  0.9184294001902331  0.15340237072427138  1.0000
  C   C6        1.0  0.7531070376542853  0.4184294005781875  0.3465976294145552  1.0000
  C   C7        1.0  0.7531070376697366  0.08157059903385824  0.8465976291995329  1.0000
  C   C8        1.0  0.24689296278711112  0.5815705996341888  0.6534023710117469  1.0000
  C   C9        1.0  0.31547061604444515  0.02735961641386523  0.12928057629452214  1.0000
  C   C10       1.0  0.6845293840071954  0.5273596170141959  0.3707194233418065  1.0000
  C   C11       1.0  0.6845293842097991  0.9726403828102262  0.8707194236292821  1.0000
  C   C12       1.0  0.31547061624704875  0.47264038319818047  0.6292805765819977  1.0000
  C   C13       1.0  0.4516878995404102  0.014207545910117586  0.10059314004210292  1.0000
  C   C14       1.0  0.5483121006983828  0.5142075465104482  0.39940686009672366  1.0000
  C   C15       1.0  0.5483121007138341  0.9857924533139737  0.8994068598817012  1.0000
  C   C16       1.0  0.4516878995558615  0.48579245370192814  0.6005931398270805  1.0000
  C   C17       1.0  0.12268787004739488  0.935502982141264  0.182514310134355  1.0000
  C   C18       1.0  0.8773121289215473  0.4355029825292183  0.3174856894972808  1.0000
  C   C19       1.0  0.8773121291241509  0.06449701708282736  0.8174856897847563  1.0000
  C   C20       1.0  0.12268787024999846  0.5644970176831579  0.6825143104218305  1.0000
  C   C21       1.0  0.1332059014947962  0.1727785262870857  0.1631166727359863  1.0000
  C   C22       1.0  0.8667940987439967  0.6727785268874164  0.33688332740284027  1.0000
  C   C23       1.0  0.8667940987594481  0.8272214729370058  0.836883327187818  1.0000
  C   C24       1.0  0.13320590151024753  0.32722147332496  0.6631166725209638  1.0000
  C   C25       1.0  0.25800184110093805  0.15424225503858316  0.1346522682451029  1.0000
  C   C26       1.0  0.7419981591378549  0.6542422546506288  0.36534773189372366  1.0000
  C   C27       1.0  0.7419981591533062  0.8457577451737931  0.8653477316787014  1.0000
  C   C28       1.0  0.25800184111638946  0.34575774556174743  0.6346522680300806  1.0000
  C   C29       1.0  0.2501121574893857  0.14818039920959689  0.35123010965568885  1.0000
  C   C30       1.0  0.7498878427494072  0.6481803988216426  0.14876989048313774  1.0000
  C   C31       1.0  0.7498878427648585  0.8518196010027793  0.6487698902681154  1.0000
  C   C32       1.0  0.25011215750483706  0.3518196004024488  0.8512301094406665  1.0000
  C   C33       1.0  0.0409013859300742  0.05622014404301703  0.4023742163322901  1.0000
  C   C34       1.0  0.9590986143087188  0.5562201446433477  0.09762578380653647  1.0000
  C   C35       1.0  0.95909861432417  0.9437798561693593  0.5976257835915142  1.0000
  C   C36       1.0  0.04090138594552555  0.44377985556902866  0.9023742161172679  1.0000
  C   C37       1.0  0.3747893970179292  0.1291972571625289  0.32260592721611914  1.0000
  C   C38       1.0  0.6252106032208637  0.6291972567745746  0.17739407292270742  1.0000
  C   C39       1.0  0.6252106034234672  0.8708027430498474  0.677394073210183  1.0000
  C   C40       1.0  0.3747893970333805  0.3708027434378017  0.8226059270010967  1.0000
  C   C41       1.0  0.42527985180835254  0.0007086743818255479  0.31628151983889446  1.0000
  C   C42       1.0  0.5747201473477419  0.5007086749821561  0.1837184802952392  1.0000
  C   C43       1.0  0.5747201473631932  0.9992913258305508  0.6837184800802169  1.0000
  C   C44       1.0  0.42527985201095614  0.49929132523022013  0.8162815201263701  1.0000
  C   C45       1.0  0.17634092889304576  0.04005792480856465  0.3731602506337508  1.0000
  C   C46       1.0  0.8236590713457471  0.5400579254088952  0.12683974950507582  1.0000
  C   C47       1.0  0.8236590715483507  0.9599420744155268  0.6268397497925513  1.0000
  C   C48       1.0  0.17634092890849712  0.4599420748034811  0.8731602504187285  1.0000
  C   C49       1.0  0.2286842017661322  0.9120482334689827  0.36547430310314083  1.0000
  C   C50       1.0  0.7713157984726607  0.41204823385693706  0.13452569703568576  1.0000
  C   C51       1.0  0.771315798488112  0.08795176575510864  0.6345256968206633  1.0000
  C   C52       1.0  0.22868420069888504  0.5879517663554392  0.8654743028834255  1.0000
  C   C53       1.0  0.3534574537052051  0.8914910659027662  0.3371464160831286  1.0000
  C   C54       1.0  0.6465425465335878  0.39149106629072056  0.16285358405569794  1.0000
  C   C55       1.0  0.6465425465490392  0.10850893332132518  0.6628535838406756  1.0000
  C   C56       1.0  0.3534574537206564  0.6085089339216557  0.8371464158681062  1.0000
  C   C57       1.0  0.33607544536532347  0.5640587281622237  0.038020581693785464  1.0000
  C   C58       1.0  0.663924553790771  0.06405872855017802  0.4619794184403482  1.0000
  C   C59       1.0  0.6639245539933746  0.4359412720501525  0.9619794187278237  1.0000
  C   C60       1.0  0.3360754453807748  0.9359412716621983  0.538020581478763  1.0000
  C   C61       1.0  0.46994554098032937  0.5571255687560697  0.007587253148681062  1.0000
  C   C62       1.0  0.5300544592584635  0.05712556914402393  0.4924127469901455  1.0000
  C   C63       1.0  0.5300544592739149  0.4428744314563066  0.9924127467751231  1.0000
  C   C64       1.0  0.46994554099578073  0.9428744310683523  0.5075872529336588  1.0000
  C   C65       1.0  0.8308662942119703  0.01795667280198742  0.04214228017762102  1.0000
  C   C66       1.0  0.16913370602682254  0.517956673402318  0.4578577199612055  1.0000
  C   C67       1.0  0.16913370604227393  0.9820433274103889  0.9578577197461832  1.0000
  C   C68       1.0  0.8308662942274216  0.48204332681005824  0.5421422799625987  1.0000
  C   C69       1.0  0.9657864549578408  0.04634234931099203  0.01503756171338365  1.0000
  C   C70       1.0  0.03421354528095211  0.5463423489230377  0.4849624384254429  1.0000
  C   C71       1.0  0.03421354529640349  0.9536576509013842  0.9849624382104206  1.0000
  C   C72       1.0  0.9657864549732922  0.45365765128933855  0.5150375614983613  1.0000
  N   N1        1.0  0.48607538352476154  0.8975933524662789  0.07694093773180807  1.0000
  N   N2        1.0  0.5139246165268792  0.3975933518659483  0.42305906190452064  1.0000
  N   N3        1.0  0.5139246167294828  0.10240664774609744  0.9230590621919962  1.0000
  N   N4        1.0  0.486075383727365  0.6024066473581431  0.5769409380192836  1.0000
  N   N5        1.0  0.008752443603106501  0.1752430300866844  0.42420716640997047  1.0000
  N   N6        1.0  0.9912475566356864  0.6752430296987301  0.07579283372885608  1.0000
  N   N7        1.0  0.9912475555684392  0.8247569701256918  0.5757928335091408  1.0000
  N   N8        1.0  0.008752443618557837  0.32475696952536126  0.924207166194948  1.0000
  O   O1        1.0  0.5327267568667793  0.1152936997758635  0.10012963556164026  1.0000
  O   O2        1.0  0.46727324337201365  0.6152936993879092  0.39987036457718633  1.0000
  O   O3        1.0  0.467273243387465  0.8847063004365129  0.8998703643621639  1.0000
  O   O4        1.0  0.532726755799532  0.38470629983618215  0.600129635341925  1.0000
  O   O5        1.0  0.9578547936623886  0.9572130601203759  0.40468283238963776  1.0000
  O   O6        1.0  0.042145206576404436  0.45721305952004526  0.0953171677491888  1.0000
  O   O7        1.0  0.042145206591855826  0.04278694009200042  0.5953171675341665  1.0000
  O   O8        1.0  0.9578547936778399  0.542786940692331  0.9046828321746154  1.0000
  O   O9        1.0  0.26658791366815704  0.45187488616710403  0.04181280106009102  1.0000
  O   O10       1.0  0.7334120865706358  0.9518748867674345  0.45818719907873556  1.0000
  O   O11       1.0  0.7334120865860873  0.5481251140452723  0.9581871988637132  1.0000
  O   O12       1.0  0.2665879138707606  0.0481251134449417  0.5418128013475666  1.0000
  O   O13       1.0  0.29454002062665907  0.671906405010366  0.058310357274105835  1.0000
  O   O14       1.0  0.7054599796121338  0.1719064053983204  0.44168964286472073  1.0000
  O   O15       1.0  0.7054599796275852  0.3280935952020102  0.9416896426496983  1.0000
  O   O16       1.0  0.29454002082926256  0.8280935948140559  0.5583103575615813  1.0000
  O   O17       1.0  0.7661156055835073  0.126354636555327  0.05708805231882053  1.0000
  O   O18       1.0  0.23388439357258708  0.6263546371556575  0.4429119478153132  1.0000
  O   O19       1.0  0.2338843937751906  0.8736453626687644  0.9429119481027887  1.0000
  O   O20       1.0  0.7661156055989587  0.3736453630567187  0.5570880521037981  1.0000
  O   O21       1.0  0.784736423803776  0.9034481952258682  0.04892353660823447  1.0000
  O   O22       1.0  0.21526357624786477  0.4034481946255375  0.45107646302809423  1.0000
  O   O23       1.0  0.2152635764504683  0.09655180498650817  0.9510764633155697  1.0000
  O   O24       1.0  0.7847364240063794  0.5965518045985538  0.5489235368957099  1.0000
  Br  Br1       1.0  0.897275161692251  0.08634523258133348  0.22649794273714116  1.0000
  Br  Br2       1.0  0.1027248383593897  0.5863452321933792  0.2735020568991875  1.0000
  Br  Br3       1.0  0.10272483856199324  0.9136547676310427  0.773502057186663  1.0000
  Br  Br4       1.0  0.8972751618948545  0.41365476801899714  0.7264979430246167  1.0000
  Br  Br5       1.0  0.5969687677253734  0.9742855806534434  0.27819006874162844  1.0000
  Br  Br6       1.0  0.40303123251341944  0.4742855800531128  0.2218099313971981  1.0000
  Br  Br7       1.0  0.4030312314461723  0.025714419558932895  0.7218099311774828  1.0000
  Br  Br8       1.0  0.5969687677408249  0.5257144191709786  0.778190068526606  1.0000
