data_image0
_chemical_formula_structural       H34C12N4O22I6
_chemical_formula_sum              "H34 C12 N4 O22 I6"
_cell_length_a       8.291277642112435
_cell_length_b       6.204497007543151
_cell_length_c       14.779373710440519
_cell_angle_alpha    90.0
_cell_angle_beta     93.13409834292504
_cell_angle_gamma    90.0

_space_group_name_H-M_alt    "P 1"
_space_group_IT_number       1

loop_
  _space_group_symop_operation_xyz
  'x, y, z'

loop_
  _atom_site_type_symbol
  _atom_site_label
  _atom_site_symmetry_multiplicity
  _atom_site_fract_x
  _atom_site_fract_y
  _atom_site_fract_z
  _atom_site_occupancy
  H   H1        1.0  0.03656352426177405  0.5666475389907824  0.023738551062108475  1.0000
  H   H2        1.0  0.9634364758208833  0.06664753959866006  0.9762614487643958  1.0000
  H   H3        1.0  0.4478616888418304  0.4316470322645045  0.37322703479769664  1.0000
  H   H4        1.0  0.5521383112408269  0.9316470316566268  0.6267729650288075  1.0000
  H   H5        1.0  0.28907736239959114  0.23276811129801417  0.5744818247316643  1.0000
  H   H6        1.0  0.7109226377459024  0.7327681123018708  0.4255181757724698  1.0000
  H   H7        1.0  0.13050017142683243  0.5484496367494355  0.5091011844629877  1.0000
  H   H8        1.0  0.8694998287186609  0.048449637357313106  0.49089881604114644  1.0000
  H   H9        1.0  0.23514604063059466  0.7211757495506989  0.5862452958776894  1.0000
  H   H10       1.0  0.7648539595148988  0.22117575015857657  0.41375470462644476  1.0000
  H   H11       1.0  0.012546635889247485  0.3452085507328056  0.634174176991726  1.0000
  H   H12       1.0  0.987453364256246  0.8452085501249279  0.36582582351240817  1.0000
  H   H13       1.0  0.11968516974961449  0.5016221872967604  0.7160668042666067  1.0000
  H   H14       1.0  0.8803148303330429  0.001622186292903938  0.28393319555989754  1.0000
  H   H15       1.0  0.8868279858943405  0.6999172930086708  0.5714865142799949  1.0000
  H   H16       1.0  0.11317201418831692  0.19991729361654842  0.4285134855465095  1.0000
  H   H17       1.0  0.8199265919716822  0.6054581822560213  0.6741742530828858  1.0000
  H   H18       1.0  0.1800734081109752  0.10545818286389905  0.3258257467436185  1.0000
  H   H19       1.0  0.0843628799245128  0.9511727675628114  0.6685957310405044  1.0000
  H   H20       1.0  0.9156371201581446  0.4511727681706891  0.3314042687859998  1.0000
  H   H21       1.0  0.873245268661206  0.007789442067784555  0.6635072087443988  1.0000
  H   H22       1.0  0.1267547314214514  0.5077894414599069  0.3364927910821055  1.0000
  H   H23       1.0  0.9600983043802506  0.0395866159176791  0.8118843906008355  1.0000
  H   H24       1.0  0.03990169570240676  0.5395866153098015  0.1881156092256689  1.0000
  H   H25       1.0  0.07182152141412328  0.8127155825636735  0.8143281740738356  1.0000
  H   H26       1.0  0.9281784786685341  0.3127155831715511  0.18567182575266883  1.0000
  H   H27       1.0  0.8650646419691999  0.7997281703847274  0.8071898780880215  1.0000
  H   H28       1.0  0.13493535817629362  0.2997281693808709  0.19281012241611262  1.0000
  H   H29       1.0  0.5377803441722836  0.34952290046453344  0.6683037553957827  1.0000
  H   H30       1.0  0.4622196559732098  0.8495229014683899  0.3316962451083514  1.0000
  H   H31       1.0  0.3676389521051161  0.33558855253997305  0.7217012392735612  1.0000
  H   H32       1.0  0.6323610479775413  0.8355885535438295  0.2782987605529431  1.0000
  H   H33       1.0  0.4402959975945448  0.580531907037905  0.6879264400052622  1.0000
  H   H34       1.0  0.5597040024881125  0.08053190603404849  0.31207355982124224  1.0000
  C   C1        1.0  0.4471918880234792  0.4347801661795288  0.5063184882424614  1.0000
  C   C2        1.0  0.5528081120591781  0.934780165571651  0.49368151158404294  1.0000
  C   C3        1.0  0.3309501861287682  0.40094485773393274  0.581579762648567  1.0000
  C   C4        1.0  0.6690498139538891  0.9009448571260551  0.4184202371779373  1.0000
  C   C5        1.0  0.18796529675885212  0.5564414030343924  0.5776765272153335  1.0000
  C   C6        1.0  0.8120347021175475  0.05644140364227011  0.4223234726093713  1.0000
  C   C7        1.0  0.06347440645416978  0.506877164446457  0.6470521470999027  1.0000
  C   C8        1.0  0.9365255936284875  0.0068771650543347045  0.3529478527266017  1.0000
  C   C9        1.0  0.926068117800487  0.6714902182940612  0.6427232178963239  1.0000
  C   C10       1.0  0.07393188228217025  0.17149021729020475  0.35727678193018036  1.0000
  C   C11       1.0  0.9655204818124  0.8899994928334399  0.6855840911502642  1.0000
  C   C12       1.0  0.03447951827025721  0.38999949182958343  0.31441590867624003  1.0000
  N   N1        1.0  0.9658392879998821  0.8839222669190494  0.7868242567802693  1.0000
  N   N2        1.0  0.03416071208277528  0.38392226591519285  0.21317574304623496  1.0000
  N   N3        1.0  0.4242613096120321  0.41738766363358415  0.6701212136970529  1.0000
  N   N4        1.0  0.5757386893272034  0.9173876646374407  0.3298787868052817  1.0000
  O   O1        1.0  0.6470790778449089  0.19110133965065884  0.7870853199388619  1.0000
  O   O2        1.0  0.3529209222377486  0.6911013390427811  0.21291467988764246  1.0000
  O   O3        1.0  0.6725260974427283  0.6355557179261925  0.8159201527977534  1.0000
  O   O4        1.0  0.32747390270276516  0.13555571853407017  0.18407984770638072  1.0000
  O   O5        1.0  0.9370107339422792  0.3668772790497907  0.8463395401897269  1.0000
  O   O6        1.0  0.06298926614037821  0.8668772784419131  0.1536604596367775  1.0000
  O   O7        1.0  0.15125169380159742  0.1035839793650719  0.9832170145442397  1.0000
  O   O8        1.0  0.8487483062810599  0.6035839803689284  0.016782985282264587  1.0000
  O   O9        1.0  0.1581259329740095  0.5351541705900175  0.0333368438641342  1.0000
  O   O10       1.0  0.8418740671086479  0.035154169586160945  0.9666631559623701  1.0000
  O   O11       1.0  0.43576265602734443  0.3437422819943503  0.9784680741896459  1.0000
  O   O12       1.0  0.564237344118149  0.8437422813864726  0.021531926314488255  1.0000
  O   O13       1.0  0.2967864620735428  0.15128037274558587  0.8062961523019669  1.0000
  O   O14       1.0  0.7032135380091145  0.6512803737494424  0.19370384752453734  1.0000
  O   O15       1.0  0.4414062640251312  0.8645166181043881  0.6982714511917566  1.0000
  O   O16       1.0  0.5585937348512683  0.36451661710053146  0.30172854863294823  1.0000
  O   O17       1.0  0.2791412348034151  0.7124128345337523  0.8394666131406747  1.0000
  O   O18       1.0  0.7208587653420784  0.21241283514163004  0.16053338736345946  1.0000
  O   O19       1.0  0.5947211386845971  0.44066483015077595  0.5213488001218204  1.0000
  O   O20       1.0  0.40527886139806024  0.9406648295428982  0.478651199704684  1.0000
  O   O21       1.0  0.3706853453011192  0.44835274424631166  0.4257749671998155  1.0000
  O   O22       1.0  0.6293146548443743  0.948352743638434  0.5742250333043186  1.0000
  I   I1        1.0  0.7253835052526013  0.38141563564668085  0.8755099523648973  1.0000
  I   I2        1.0  0.27461649483005607  0.8814156366505373  0.12449004746160695  1.0000
  I   I3        1.0  0.22853144145243287  0.3528657483980217  0.933417622111954  1.0000
  I   I4        1.0  0.7714685586302246  0.8528657477901441  0.06658237771455038  1.0000
  I   I5        1.0  0.43707940454317845  0.9127429948173142  0.8208059027765202  1.0000
  I   I6        1.0  0.5629205955394789  0.4127429938134578  0.1791940970499841  1.0000
