data_image0
_chemical_formula_structural       H22C10N6Cl4
_chemical_formula_sum              "H22 C10 N6 Cl4"
_cell_length_a       4.3951712745092495
_cell_length_b       12.589540511039115
_cell_length_c       7.588481028113974
_cell_angle_alpha    90.0
_cell_angle_beta     91.09508029802497
_cell_angle_gamma    90.0

_space_group_name_H-M_alt    "P 1"
_space_group_IT_number       1

loop_
  _space_group_symop_operation_xyz
  'x, y, z'

loop_
  _atom_site_type_symbol
  _atom_site_label
  _atom_site_symmetry_multiplicity
  _atom_site_fract_x
  _atom_site_fract_y
  _atom_site_fract_z
  _atom_site_occupancy
  H   H1        1.0  0.1433616612607514  0.23650613121179295  0.4836283673322162  1.0000
  H   H2        1.0  0.8566383390504893  0.7365061315676791  0.5163716327105876  1.0000
  H   H3        1.0  0.767241013463648  0.2201977282307652  0.44706439317197766  1.0000
  H   H4        1.0  0.2327589868475925  0.720197727792341  0.5529356068708261  1.0000
  H   H5        1.0  0.02753365948422244  0.17433234501890876  0.2987706587333163  1.0000
  H   H6        1.0  0.9724663408270182  0.6743323453747949  0.7012293413094874  1.0000
  H   H7        1.0  0.22712138581455296  0.04861712144802346  0.5040081858872478  1.0000
  H   H8        1.0  0.7728786144966876  0.5486171218039095  0.4959918141555561  1.0000
  H   H9        1.0  0.835726450069882  0.023831092146446953  0.46037768187105477  1.0000
  H   H10       1.0  0.164273547966491  0.5238310917080229  0.5396223181808945  1.0000
  H   H11       1.0  0.06846224093027138  0.16108757410341829  0.7713537969793199  1.0000
  H   H12       1.0  0.9315377593809692  0.6610875744593043  0.22864620306348385  1.0000
  H   H13       1.0  0.6901713334129859  0.11861694862418322  0.735097591742735  1.0000
  H   H14       1.0  0.3098286668982546  0.6186169489800692  0.2649024083000688  1.0000
  H   H15       1.0  0.34286512717526746  0.8969511937388384  0.6888089810053998  1.0000
  H   H16       1.0  0.6571348731359732  0.3969511941772625  0.31119101903740404  1.0000
  H   H17       1.0  0.3162337625433129  0.7837697318141099  0.9613527601298368  1.0000
  H   H18       1.0  0.6837662377679277  0.2837697314582238  0.038647239912967084  1.0000
  H   H19       1.0  0.9309750939168692  0.8616657288236987  0.18903912027899247  1.0000
  H   H20       1.0  0.06902490639437153  0.3616657292621228  0.8109608797638114  1.0000
  H   H21       1.0  0.7159709212486949  0.03246718969938506  0.045808811249484695  1.0000
  H   H22       1.0  0.28402907678767814  0.5324671892609609  0.9541911888024647  1.0000
  C   C1        1.0  0.9964206509303001  0.07958232622719484  0.5235390712293639  1.0000
  C   C2        1.0  0.00357934938094037  0.5795823257887708  0.47646092881343993  1.0000
  C   C3        1.0  0.9289039893909729  0.09499362259896256  0.7184161512053299  1.0000
  C   C4        1.0  0.07109601092026771  0.5949936229548486  0.2815838488374739  1.0000
  C   C5        1.0  0.9986848950220368  0.9986305003725913  0.8249257415657358  1.0000
  C   C6        1.0  0.0013151052892036849  0.49863050081101534  0.17507425847706795  1.0000
  C   C7        1.0  0.19884610198876845  0.91653407762438  0.7992868515745446  1.0000
  C   C8        1.0  0.8011538983224721  0.41653407806280396  0.20071314846825936  1.0000
  C   C9        1.0  0.9927758568801964  0.8939336745556173  0.06189449191209523  1.0000
  C   C10       1.0  0.007224141156176365  0.3939336749940413  0.938105508139854  1.0000
  N   N1        1.0  0.9775638927891074  0.18342334638624566  0.43083553529654167  1.0000
  N   N2        1.0  0.02243610752213322  0.6834233459478216  0.5691644647462621  1.0000
  N   N3        1.0  0.190913164578757  0.8537439917346803  0.9483298803962077  1.0000
  N   N4        1.0  0.8090868357324836  0.35374399217310426  0.05167011964659614  1.0000
  N   N5        1.0  0.8734329863843534  0.9814615973605655  0.9883149119559548  1.0000
  N   N6        1.0  0.12656701392688718  0.4814615970046794  0.011685088086848991  1.0000
  Cl  Cl1       1.0  0.4677365586875614  0.32944582182036025  0.592075749594629  1.0000
  Cl  Cl2       1.0  0.5322634416236792  0.8294458221762463  0.40792425044817476  1.0000
  Cl  Cl3       1.0  0.4282258050389751  0.15280825525865158  0.11601713867386287  1.0000
  Cl  Cl4       1.0  0.5717741952722655  0.6528082556145376  0.8839828613689409  1.0000
