data_image0
_chemical_formula_structural       H88C88N4O12F16I8
_chemical_formula_sum              "H88 C88 N4 O12 F16 I8"
_cell_length_a       20.16793425717836
_cell_length_b       6.202724072579776
_cell_length_c       18.639318579238097
_cell_angle_alpha    90.0
_cell_angle_beta     90.0
_cell_angle_gamma    90.0

_space_group_name_H-M_alt    "P 1"
_space_group_IT_number       1

loop_
  _space_group_symop_operation_xyz
  'x, y, z'

loop_
  _atom_site_type_symbol
  _atom_site_label
  _atom_site_symmetry_multiplicity
  _atom_site_fract_x
  _atom_site_fract_y
  _atom_site_fract_z
  _atom_site_occupancy
  H   H1        1.0  0.2088625099767325  0.4022417265068357  0.3938944027802603  1.0000
  H   H2        1.0  0.7911374896673381  0.5977582730772543  0.8938944028006982  1.0000
  H   H3        1.0  0.29113749009322115  0.4022417265068357  0.8938944028006982  1.0000
  H   H4        1.0  0.7088625100466861  0.5977582730772543  0.3938944027802603  1.0000
  H   H5        1.0  0.12830539989880113  0.6979857655024388  0.41712064402720267  1.0000
  H   H6        1.0  0.8716946002411062  0.302014234081651  0.9171206440476407  1.0000
  H   H7        1.0  0.37169460017115247  0.6979857655024388  0.9171206440476407  1.0000
  H   H8        1.0  0.6283053994729182  0.302014234081651  0.41712064402720267  1.0000
  H   H9        1.0  0.06210128434716682  0.6984584481440803  0.5298559090567193  1.0000
  H   H10       1.0  0.9378987157927404  0.30154155144000955  0.029855909036281266  1.0000
  H   H11       1.0  0.43789871572278677  0.6984584481440803  0.029855909036281266  1.0000
  H   H12       1.0  0.5621012844171204  0.30154155144000955  0.5298559090567193  1.0000
  H   H13       1.0  0.07474804116159946  0.4000227707965786  0.6180990984741745  1.0000
  H   H14       1.0  0.9252519584824712  0.5999772303997063  0.1180990984537365  1.0000
  H   H15       1.0  0.4252519584125175  0.4000227707965786  0.1180990984537365  1.0000
  H   H16       1.0  0.5747480412315531  0.5999772303997063  0.6180990984741745  1.0000
  H   H17       1.0  0.15758970499761343  0.10844632489354518  0.5952731899952074  1.0000
  H   H18       1.0  0.8424102951422938  0.8915536763027396  0.09527318997476938  1.0000
  H   H19       1.0  0.34241029507234017  0.10844632489354518  0.09527318997476938  1.0000
  H   H20       1.0  0.6575897050675671  0.8915536763027396  0.5952731899952074  1.0000
  H   H21       1.0  0.30102039765620353  0.7647718961045225  0.42315671554568196  1.0000
  H   H22       1.0  0.6989796019878671  0.23522810509176242  0.92315671556612  1.0000
  H   H23       1.0  0.1989796019179135  0.7647718961045225  0.92315671556612  1.0000
  H   H24       1.0  0.8010203977261571  0.23522810509176242  0.42315671554568196  1.0000
  H   H25       1.0  0.384607671320584  0.9794966548420263  0.4895415983803086  1.0000
  H   H26       1.0  0.6153923288193234  0.020503344742063622  0.9895415984007466  1.0000
  H   H27       1.0  0.11539232874936968  0.9794966548420263  0.9895415984007466  1.0000
  H   H28       1.0  0.8846076713905376  0.020503344742063622  0.4895415983803086  1.0000
  H   H29       1.0  0.39616940030217296  0.14810741365412955  0.4137058523474844  1.0000
  H   H30       1.0  0.6038305998377343  0.8518925859299603  0.9137058523679226  1.0000
  H   H31       1.0  0.10383059976778071  0.14810741365412955  0.9137058523679226  1.0000
  H   H32       1.0  0.8961694003721266  0.8518925859299603  0.4137058523474844  1.0000
  H   H33       1.0  0.3904692190870798  0.5386253508791771  0.4410979883759288  1.0000
  H   H34       1.0  0.6095307810528274  0.4613746487049128  0.9410979883963668  1.0000
  H   H35       1.0  0.10953078098287378  0.5386253508791771  0.9410979883963668  1.0000
  H   H36       1.0  0.8904692191570334  0.4613746487049128  0.4410979883759288  1.0000
  H   H37       1.0  0.45285822402704534  0.635835003113348  0.4993118573748004  1.0000
  H   H38       1.0  0.5471417761128619  0.3641649964707419  0.9993118573952384  1.0000
  H   H39       1.0  0.047141776042908284  0.635835003113348  0.9993118573952384  1.0000
  H   H40       1.0  0.9528582240969989  0.3641649964707419  0.4993118573748004  1.0000
  H   H41       1.0  0.4758774234195047  0.5042253215528273  0.4184481920217717  1.0000
  H   H42       1.0  0.5241225767204025  0.4957746796434575  0.9184481920422097  1.0000
  H   H43       1.0  0.02412257665044894  0.5042253215528273  0.9184481920422097  1.0000
  H   H44       1.0  0.9758774234894583  0.4957746796434575  0.4184481920217717  1.0000
  H   H45       1.0  0.5498819640416445  0.8333663144635259  0.406500135066081  1.0000
  H   H46       1.0  0.45011803609826284  0.1666336851205639  0.9065001350865192  1.0000
  H   H47       1.0  0.9501180361682164  0.8333663144635259  0.9065001350865192  1.0000
  H   H48       1.0  0.049881963971690826  0.1666336851205639  0.406500135066081  1.0000
  H   H49       1.0  0.5115977684391532  0.9738002657093554  0.4786446506653721  1.0000
  H   H50       1.0  0.48840223120491744  0.026199733874734583  0.9786446506858101  1.0000
  H   H51       1.0  0.9884022312748711  0.9738002657093554  0.9786446506858101  1.0000
  H   H52       1.0  0.01159776836919959  0.026199733874734583  0.4786446506653721  1.0000
  H   H53       1.0  0.5141039616543561  0.091541162133921  0.39126693119154293  1.0000
  H   H54       1.0  0.485896038485551  0.9084588374501689  0.8912669312119809  1.0000
  H   H55       1.0  0.9858960385555047  0.091541162133921  0.8912669312119809  1.0000
  H   H56       1.0  0.014103961584402561  0.9084588374501689  0.39126693119154293  1.0000
  H   H57       1.0  0.4022515641190418  0.9991919578364074  0.20495071339438165  1.0000
  H   H58       1.0  0.5977484355250289  0.0008080433598774337  0.7049507134148196  1.0000
  H   H59       1.0  0.09774843545507525  0.9991919578364074  0.7049507134148196  1.0000
  H   H60       1.0  0.9022515641889953  0.0008080433598774337  0.20495071339438165  1.0000
  H   H61       1.0  0.33582878611324807  0.8230561524682977  0.18020654219309448  1.0000
  H   H62       1.0  0.6641712140266591  0.1769438487279871  0.6802065422135325  1.0000
  H   H63       1.0  0.16417121395670553  0.8230561524682977  0.6802065422135325  1.0000
  H   H64       1.0  0.8358287861832017  0.1769438487279871  0.18020654219309448  1.0000
  H   H65       1.0  0.4187707081102722  0.7256251410403382  0.18329527527929904  1.0000
  H   H66       1.0  0.5812292920296349  0.2743748585437518  0.683295275299737  1.0000
  H   H67       1.0  0.08122929195968134  0.7256251410403382  0.683295275299737  1.0000
  H   H68       1.0  0.9187707081802259  0.2743748585437518  0.18329527527929904  1.0000
  H   H69       1.0  0.39041185525470873  0.42787646668541474  0.27479152889769237  1.0000
  H   H70       1.0  0.6095881448851984  0.5721235345108702  0.7747915289181304  1.0000
  H   H71       1.0  0.10958814481524487  0.42787646668541474  0.7747915289181304  1.0000
  H   H72       1.0  0.8904118553246624  0.5721235345108702  0.27479152889769237  1.0000
  H   H73       1.0  0.30817342375002144  0.511305728400868  0.2549428853742057  1.0000
  H   H74       1.0  0.6918265763898859  0.4886942727954169  0.7549428853946437  1.0000
  H   H75       1.0  0.1918265763199322  0.511305728400868  0.7549428853946437  1.0000
  H   H76       1.0  0.8081734238199751  0.4886942727954169  0.2549428853742057  1.0000
  H   H77       1.0  0.3340041515457835  0.48738878348052106  0.3455887259298781  1.0000
  H   H78       1.0  0.6659958485941238  0.5126112161035689  0.8455887259503161  1.0000
  H   H79       1.0  0.1659958485241701  0.48738878348052106  0.8455887259503161  1.0000
  H   H80       1.0  0.834004151615737  0.5126112161035689  0.3455887259298781  1.0000
  H   H81       1.0  0.3295896329905026  0.08813664506159909  0.3025515802000158  1.0000
  H   H82       1.0  0.6704103671494046  0.9118633561346857  0.8025515802204538  1.0000
  H   H83       1.0  0.17041036707945104  0.08813664506159909  0.8025515802204538  1.0000
  H   H84       1.0  0.8295896330604562  0.9118633561346857  0.3025515802000158  1.0000
  H   H85       1.0  0.27099001813012835  0.8765777304258878  0.2980927922005139  1.0000
  H   H86       1.0  0.7290099820097788  0.12342227077039689  0.798092792220952  1.0000
  H   H87       1.0  0.2290099819398253  0.8765777304258878  0.798092792220952  1.0000
  H   H88       1.0  0.770990018200082  0.12342227077039689  0.2980927922005139  1.0000
  C   C1        1.0  0.5749364150110168  0.057970805373976336  0.213875567019948  1.0000
  C   C2        1.0  0.42506358512889053  0.9420291958223085  0.713875567040386  1.0000
  C   C3        1.0  0.925063585198844  0.057970805373976336  0.713875567040386  1.0000
  C   C4        1.0  0.07493641494106316  0.9420291958223085  0.213875567019948  1.0000
  C   C5        1.0  0.6284917428014949  0.9629760972932877  0.24881330239002608  1.0000
  C   C6        1.0  0.37150825733841236  0.03702390390299703  0.7488133024104641  1.0000
  C   C7        1.0  0.871508257408366  0.9629760972932877  0.7488133024104641  1.0000
  C   C8        1.0  0.1284917427315413  0.03702390390299703  0.24881330239002608  1.0000
  C   C9        1.0  0.6619791630492883  0.7877706283277774  0.21926604465854135  1.0000
  C   C10       1.0  0.338020837090619  0.21222937286850743  0.7192660446789794  1.0000
  C   C11       1.0  0.8380208371605725  0.7877706283277774  0.7192660446789794  1.0000
  C   C12       1.0  0.16197916297933465  0.21222937286850743  0.21926604465854135  1.0000
  C   C13       1.0  0.6427447072516188  0.6987518160222428  0.15375191951449246  1.0000
  C   C14       1.0  0.3572552928882884  0.30124818356184707  0.6537519195349305  1.0000
  C   C15       1.0  0.8572552929582421  0.6987518160222428  0.6537519195349305  1.0000
  C   C16       1.0  0.1427447071816652  0.30124818356184707  0.15375191951449246  1.0000
  C   C17       1.0  0.5880107664362823  0.7910359759013599  0.11981521054571125  1.0000
  C   C18       1.0  0.411989233703625  0.20896402529492494  0.6198152105661492  1.0000
  C   C19       1.0  0.9119892337735787  0.7910359759013599  0.6198152105661492  1.0000
  C   C20       1.0  0.08801076636632862  0.20896402529492494  0.11981521054571125  1.0000
  C   C21       1.0  0.5552871953662755  0.9678017899486038  0.14895146290876296  1.0000
  C   C22       1.0  0.4447128047736318  0.03219820963548615  0.648951462929201  1.0000
  C   C23       1.0  0.9447128048435853  0.9678017899486038  0.648951462929201  1.0000
  C   C24       1.0  0.05528719529632187  0.03219820963548615  0.14895146290876296  1.0000
  C   C25       1.0  0.17994261998887204  0.40453000014820967  0.44322614825641843  1.0000
  C   C26       1.0  0.8200573796551986  0.5954700010480752  0.9432261482768565  1.0000
  C   C27       1.0  0.320057379585245  0.40453000014820967  0.9432261482768565  1.0000
  C   C28       1.0  0.6799426200588257  0.5954700010480752  0.44322614825641843  1.0000
  C   C29       1.0  0.13462215938321168  0.5694669146439885  0.4563763290936634  1.0000
  C   C30       1.0  0.8653778407566957  0.4305330849401014  0.9563763291141013  1.0000
  C   C31       1.0  0.36537784068674195  0.5694669146439885  0.9563763291141013  1.0000
  C   C32       1.0  0.6346221594531652  0.4305330849401014  0.4563763290936634  1.0000
  C   C33       1.0  0.09733730212360632  0.5691910874461348  0.5196231744645625  1.0000
  C   C34       1.0  0.9026626980163008  0.4308089121379552  0.019623174444124498  1.0000
  C   C35       1.0  0.40266269794634724  0.5691910874461348  0.019623174444124498  1.0000
  C   C36       1.0  0.59733730219356  0.4308089121379552  0.5196231744645625  1.0000
  C   C37       1.0  0.10469160515279277  0.4025171490437743  0.5694531806448617  1.0000
  C   C38       1.0  0.8953083949871143  0.5974828505403157  0.06945318062442368  1.0000
  C   C39       1.0  0.3953083949171608  0.4025171490437743  0.06945318062442368  1.0000
  C   C40       1.0  0.6046916052227465  0.5974828505403157  0.5694531806448617  1.0000
  C   C41       1.0  0.15037352022905195  0.23859675082797516  0.5568818283712327  1.0000
  C   C42       1.0  0.8496264794150187  0.7614032503683097  0.056881828350794694  1.0000
  C   C43       1.0  0.34962647984090167  0.23859675082797516  0.056881828350794694  1.0000
  C   C44       1.0  0.6503735202990055  0.7614032503683097  0.5568818283712327  1.0000
  C   C45       1.0  0.18856964533422055  0.23982540938360722  0.49406576913480865  1.0000
  C   C46       1.0  0.8114303543098501  0.7601745918126777  0.9940657691552466  1.0000
  C   C47       1.0  0.31143035423989646  0.23982540938360722  0.9940657691552466  1.0000
  C   C48       1.0  0.6885696454041741  0.7601745918126777  0.49406576913480865  1.0000
  C   C49       1.0  0.23875227420905296  0.06737109455623386  0.4846281794905207  1.0000
  C   C50       1.0  0.7612477254350177  0.932628905027856  0.9846281795109589  1.0000
  C   C51       1.0  0.2612477258609007  0.06737109455623386  0.9846281795109589  1.0000
  C   C52       1.0  0.7387522742790066  0.932628905027856  0.4846281794905207  1.0000
  C   C53       1.0  0.31808100513401366  0.9194895441524813  0.4010443014975045  1.0000
  C   C54       1.0  0.6819189950058936  0.08051045543160863  0.9010443015179425  1.0000
  C   C55       1.0  0.18191899493593994  0.9194895441524813  0.9010443015179425  1.0000
  C   C56       1.0  0.8180810052039673  0.08051045543160863  0.4010443014975045  1.0000
  C   C57       1.0  0.38550970668861007  0.9819141749226453  0.43073184279079885  1.0000
  C   C58       1.0  0.6144902934512972  0.018085824661444698  0.9307318428112369  1.0000
  C   C59       1.0  0.11449029338134357  0.9819141749226453  0.9307318428112369  1.0000
  C   C60       1.0  0.8855097062627272  0.018085824661444698  0.43073184279079885  1.0000
  C   C61       1.0  0.44182638421822557  0.834199628978168  0.4051427313663459  1.0000
  C   C62       1.0  0.558173615425845  0.1658003706059219  0.9051427313867839  1.0000
  C   C63       1.0  0.05817361585172804  0.834199628978168  0.9051427313867839  1.0000
  C   C64       1.0  0.9418263842881792  0.1658003706059219  0.4051427313663459  1.0000
  C   C65       1.0  0.4395753747979702  0.6137936953910881  0.44281892145959467  1.0000
  C   C66       1.0  0.560424625341937  0.38620630419300184  0.9428189214800328  1.0000
  C   C67       1.0  0.06042462527198344  0.6137936953910881  0.9428189214800328  1.0000
  C   C68       1.0  0.9395753748679238  0.38620630419300184  0.44281892145959467  1.0000
  C   C69       1.0  0.5087721513346292  0.9399897209316032  0.4210498574095834  1.0000
  C   C70       1.0  0.4912278488052781  0.06001027865248678  0.9210498574300213  1.0000
  C   C71       1.0  0.9912278488752317  0.9399897209316032  0.9210498574300213  1.0000
  C   C72       1.0  0.008772151264675525  0.06001027865248678  0.4210498574095834  1.0000
  C   C73       1.0  0.3721928252184909  0.7723305799104425  0.28748628214170674  1.0000
  C   C74       1.0  0.6278071749214164  0.22766941967364734  0.7874862821621448  1.0000
  C   C75       1.0  0.12780717485146276  0.7723305799104425  0.7874862821621448  1.0000
  C   C76       1.0  0.8721928252884444  0.22766941967364734  0.28748628214170674  1.0000
  C   C77       1.0  0.3831836171941789  0.8340021189832586  0.20898237687395244  1.0000
  C   C78       1.0  0.6168163829457283  0.16599788221302625  0.7089823768943905  1.0000
  C   C79       1.0  0.11681638287577469  0.8340021189832586  0.7089823768943905  1.0000
  C   C80       1.0  0.8831836172641325  0.16599788221302625  0.20898237687395244  1.0000
  C   C81       1.0  0.3500007621002418  0.5348218574907975  0.2916428482560012  1.0000
  C   C82       1.0  0.6499992380396654  0.4651781420932924  0.7916428482764393  1.0000
  C   C83       1.0  0.14999923796971182  0.5348218574907975  0.7916428482764393  1.0000
  C   C84       1.0  0.8500007621701954  0.4651781420932924  0.2916428482560012  1.0000
  C   C85       1.0  0.31964889848376243  0.921729015042603  0.31975524130151023  1.0000
  C   C86       1.0  0.6803511011603082  0.07827098454148686  0.8197552413219482  1.0000
  C   C87       1.0  0.1803511015861912  0.921729015042603  0.8197552413219482  1.0000
  C   C88       1.0  0.8196488985537161  0.07827098454148686  0.31975524130151023  1.0000
  N   N1        1.0  0.43642939716878304  0.8013268592701975  0.32602768680443905  1.0000
  N   N2        1.0  0.5635706024752876  0.19867314031389244  0.8260276868248771  1.0000
  N   N3        1.0  0.06357060240533396  0.8013268592701975  0.8260276868248771  1.0000
  N   N4        1.0  0.9364293972387367  0.19867314031389244  0.32602768680443905  1.0000
  O   O1        1.0  0.25135191960454284  0.9276993660636501  0.5294613822949851  1.0000
  O   O2        1.0  0.7486480805353645  0.07230063352043978  0.029461382274547004  1.0000
  O   O3        1.0  0.24864808046541081  0.9276993660636501  0.029461382274547004  1.0000
  O   O4        1.0  0.7513519191786598  0.07230063352043978  0.5294613822949851  1.0000
  O   O5        1.0  0.26941561890831917  0.0826201043289128  0.42029736852752614  1.0000
  O   O6        1.0  0.7305843812315881  0.9173798952551772  0.9202973685479642  1.0000
  O   O7        1.0  0.23058438116163443  0.0826201043289128  0.9202973685479642  1.0000
  O   O8        1.0  0.7694156189782728  0.9173798952551772  0.42029736852752614  1.0000
  O   O9        1.0  0.4891746494308671  0.7371901500848506  0.2934912393253172  1.0000
  O   O10       1.0  0.5108253507090401  0.2628098494992394  0.7934912393457553  1.0000
  O   O11       1.0  0.010825350639086488  0.7371901500848506  0.7934912393457553  1.0000
  O   O12       1.0  0.9891746495008207  0.2628098494992394  0.2934912393253172  1.0000
  F   F1        1.0  0.6497620650134643  0.04173181282467419  0.31273410158314235  1.0000
  F   F2        1.0  0.3502379351264429  0.9582681883716105  0.8127341016035804  1.0000
  F   F3        1.0  0.8502379351963965  0.04173181282467419  0.8127341016035804  1.0000
  F   F4        1.0  0.14976206494351071  0.9582681883716105  0.31273410158314235  1.0000
  F   F5        1.0  0.7136017202593523  0.7018444120777081  0.2561038419782793  1.0000
  F   F6        1.0  0.28639827988055494  0.29815558750638177  0.7561038419987174  1.0000
  F   F7        1.0  0.7863982799505085  0.7018444120777081  0.7561038419987174  1.0000
  F   F8        1.0  0.21360172018939866  0.29815558750638177  0.2561038419782793  1.0000
  F   F9        1.0  0.5648016437749767  0.7073393042575281  0.05746234259835162  1.0000
  F   F10       1.0  0.43519835636493065  0.2926606969387566  0.5574623426187897  1.0000
  F   F11       1.0  0.9351983559390475  0.7073393042575281  0.5574623426187897  1.0000
  F   F12       1.0  0.06480164370502302  0.2926606969387566  0.05746234259835162  1.0000
  F   F13       1.0  0.5034152804413424  0.052249048354847935  0.11186242679077746  1.0000
  F   F14       1.0  0.49658471920272823  0.947750951229242  0.6118624268112155  1.0000
  F   F15       1.0  0.996584719272682  0.052249048354847935  0.6118624268112155  1.0000
  F   F16       1.0  0.003415280867225352  0.947750951229242  0.11186242679077746  1.0000
  I   I1        1.0  0.530449276241182  0.3429663797885537  0.25269047470685624  1.0000
  I   I2        1.0  0.4695507238987253  0.6570336197955362  0.7526904747272943  1.0000
  I   I3        1.0  0.9695507239686789  0.3429663797885537  0.7526904747272943  1.0000
  I   I4        1.0  0.0304492761712283  0.6570336197955362  0.25269047470685624  1.0000
  I   I5        1.0  0.691476282705371  0.4351668151630945  0.10825540490775173  1.0000
  I   I6        1.0  0.3085237169386997  0.5648331844209954  0.6082554049281897  1.0000
  I   I7        1.0  0.8085237170086533  0.4351668151630945  0.6082554049281897  1.0000
  I   I8        1.0  0.19147628313125398  0.5648331844209954  0.10825540490775173  1.0000
