data_image0
_chemical_formula_structural       H44C56N2O6F16I8
_chemical_formula_sum              "H44 C56 N2 O6 F16 I8"
_cell_length_a       9.717675395054286
_cell_length_b       13.039610245860896
_cell_length_c       14.020879639175625
_cell_angle_alpha    113.3525393519897
_cell_angle_beta     95.43910816372052
_cell_angle_gamma    105.08807423843562

_space_group_name_H-M_alt    "P 1"
_space_group_IT_number       1

loop_
  _space_group_symop_operation_xyz
  'x, y, z'

loop_
  _atom_site_type_symbol
  _atom_site_label
  _atom_site_symmetry_multiplicity
  _atom_site_fract_x
  _atom_site_fract_y
  _atom_site_fract_z
  _atom_site_occupancy
  H   H1        1.0  0.6392910762680929  0.0076794229369192895  0.9224648447233684  1.0000
  H   H2        1.0  0.3607089238118126  0.9923205765365499  0.0775351551175635  1.0000
  H   H3        1.0  0.8420239575239302  0.003796018715579755  0.041860764895914664  1.0000
  H   H4        1.0  0.1579760420626584  0.9962039819455392  0.9581392357465592  1.0000
  H   H5        1.0  0.08590642831317466  0.15739248678420828  0.10028505464807434  1.0000
  H   H6        1.0  0.9140935720180527  0.8426075130770427  0.8997149459898293  1.0000
  H   H7        1.0  0.12939729256314825  0.31413835422115527  0.03664581836571896  1.0000
  H   H8        1.0  0.8706027077983267  0.6858616460462154  0.9633541814744587  1.0000
  H   H9        1.0  0.9262946890483719  0.3170292733932869  0.9165649019784735  1.0000
  H   H10       1.0  0.07370531131310323  0.6829707268740837  0.083435097861704  1.0000
  H   H11       1.0  0.4192625332475186  0.16179719113133453  0.744437153716359  1.0000
  H   H12       1.0  0.5807374668323869  0.8382028083421347  0.2555628461245729  1.0000
  H   H13       1.0  0.2666305782252095  0.12627737360118138  0.8713924204280279  1.0000
  H   H14       1.0  0.7333694221362655  0.8737226266661894  0.1286075794121496  1.0000
  H   H15       1.0  0.24678904206836694  0.9736823787003213  0.8058805474170643  1.0000
  H   H16       1.0  0.7532109572668999  0.026317621573015874  0.19411945242843806  1.0000
  H   H17       1.0  0.8878233275113551  0.9633540625942437  0.6906569869634765  1.0000
  H   H18       1.0  0.11217667285012  0.036645937673126856  0.309343012876701  1.0000
  H   H19       1.0  0.9843200492470424  0.03198923276891182  0.8259902633214667  1.0000
  H   H20       1.0  0.01567994980665493  0.9680107667105241  0.17400973652479004  1.0000
  H   H21       1.0  0.9872682016093912  0.8898713664732502  0.73835553737791  1.0000
  H   H22       1.0  0.012731798752083889  0.11012863379412058  0.2616444624622675  1.0000
  H   H23       1.0  0.21933025521898053  0.20733085846004606  0.7125451149750821  1.0000
  H   H24       1.0  0.7806697443676083  0.792669142201073  0.28745488566739186  1.0000
  H   H25       1.0  0.09433064626112589  0.20606092344741753  0.7970116214288628  1.0000
  H   H26       1.0  0.905669353074141  0.7939390768259196  0.20298837841663928  1.0000
  H   H27       1.0  0.029294978276159633  0.13746418560023194  0.65557812540221  1.0000
  H   H28       1.0  0.9707050220853154  0.8625358146671387  0.3444218744379674  1.0000
  H   H29       1.0  0.1955051573281809  0.7584911729256307  0.5033252609761643  1.0000
  H   H30       1.0  0.8044948432846161  0.24150882772952167  0.4966747396609849  1.0000
  H   H31       1.0  0.32529316673315345  0.8184091297638034  0.4420384476822787  1.0000
  H   H32       1.0  0.6747068336283216  0.18159087050356718  0.5579615521578989  1.0000
  H   H33       1.0  0.13916344740157263  0.8069010266250537  0.40841241295978975  1.0000
  H   H34       1.0  0.8608365529599024  0.19309897364231698  0.5915875868803878  1.0000
  H   H35       1.0  0.20093441341222318  0.029103990143773083  0.46187447045964153  1.0000
  H   H36       1.0  0.7990655856414741  0.9708960093356627  0.5381255293866152  1.0000
  H   H37       1.0  0.38324577753070904  0.02357839670032956  0.47088349013022773  1.0000
  H   H38       1.0  0.6167542225491964  0.9764216027731396  0.5291165097107041  1.0000
  H   H39       1.0  0.3397701231132917  0.13147782457757534  0.5771625141992749  1.0000
  H   H40       1.0  0.6602298772481834  0.8685221756897953  0.4228374856409026  1.0000
  H   H41       1.0  0.36878148134414845  0.8974951567753962  0.6685213958415106  1.0000
  H   H42       1.0  0.6312185190173266  0.10250484349197445  0.3314786039986669  1.0000
  H   H43       1.0  0.4877893889376638  0.9880219874705413  0.624185494187173  1.0000
  H   H44       1.0  0.5122106114238111  0.011978012796829241  0.37581450565300456  1.0000
  C   C1        1.0  0.790753555299223  0.34835271592867334  0.20268250974409033  1.0000
  C   C2        1.0  0.20924644478068266  0.6516472835447962  0.7973174900968417  1.0000
  C   C3        1.0  0.8272329328330291  0.43637742977265465  0.1664849091912515  1.0000
  C   C4        1.0  0.1727670672468764  0.5636225697008147  0.8335150906496804  1.0000
  C   C5        1.0  0.7218703821589663  0.4393012324958462  0.09329099977636982  1.0000
  C   C6        1.0  0.27812961845383066  0.5606987681593063  0.9067090008607794  1.0000
  C   C7        1.0  0.5815787290269484  0.35650919732475655  0.054826601901588896  1.0000
  C   C8        1.0  0.4184212715858486  0.6434908033303959  0.9451733987355602  1.0000
  C   C9        1.0  0.5468734726890512  0.2681655021812753  0.0890657460427925  1.0000
  C   C10       1.0  0.45312652739085424  0.7318344972921939  0.9109342537981393  1.0000
  C   C11       1.0  0.6515060539920063  0.2642365013896271  0.1615009255384221  1.0000
  C   C12       1.0  0.3484939460878992  0.7357634980838421  0.8384990743025098  1.0000
  C   C13       1.0  0.3714012438460732  0.4740117782568311  0.5976311085609254  1.0000
  C   C14       1.0  0.6285987554891938  0.525988222016506  0.40236889128457687  1.0000
  C   C15       1.0  0.4934972223246538  0.5012235032493227  0.6766946279451946  1.0000
  C   C16       1.0  0.5065027780368213  0.4987764970180478  0.3233053718949829  1.0000
  C   C17       1.0  0.602115740921116  0.6112431353765544  0.7167482626244945  1.0000
  C   C18       1.0  0.3978842594403591  0.38875686489081623  0.28325173721568303  1.0000
  C   C19       1.0  0.593921887701329  0.6942571126693339  0.6795678543886564  1.0000
  C   C20       1.0  0.4060781123785765  0.3057428868041353  0.3204321454522755  1.0000
  C   C21       1.0  0.47678386420333857  0.6652736196485058  0.5977617101171562  1.0000
  C   C22       1.0  0.5232161358765669  0.33472637982496334  0.4022382897237758  1.0000
  C   C23       1.0  0.36653484983815815  0.5563322453790492  0.558252584891203  1.0000
  C   C24       1.0  0.6334651502417474  0.44366775409442005  0.44174741494972886  1.0000
  C   C25       1.0  0.7463171244910453  0.07473369140896031  0.9481455086396393  1.0000
  C   C26       1.0  0.2536828755888602  0.9252663080645089  0.05185449120129244  1.0000
  C   C27       1.0  0.8601469679918391  0.07289786562807916  0.014966113665798144  1.0000
  C   C28       1.0  0.13985303233938817  0.9271021342331719  0.9850338869721054  1.0000
  C   C29       1.0  0.9978293254302381  0.15892556447025316  0.04725062023760036  1.0000
  C   C30       1.0  0.002170675182558883  0.8410744361848993  0.9527493803995488  1.0000
  C   C31       1.0  0.022355888350613612  0.24677975248689754  0.011603031631959611  1.0000
  C   C32       1.0  0.9776441120108615  0.7532202477804731  0.988396968208218  1.0000
  C   C33       1.0  0.9089710921440589  0.2488506139295776  0.9445264632945791  1.0000
  C   C34       1.0  0.09102890744252978  0.7511493867315412  0.055473537347894716  1.0000
  C   C35       1.0  0.7705346505326651  0.16316201784825396  0.9125691034445127  1.0000
  C   C36       1.0  0.2294653498288101  0.8368379824191167  0.08743089639566488  1.0000
  C   C37       1.0  0.6531175057072728  0.167746033246944  0.8403666100512124  1.0000
  C   C38       1.0  0.34688249359774637  0.8322539666202735  0.15963339059201587  1.0000
  C   C39       1.0  0.3977035175208175  0.08025172622399959  0.7545593197966937  1.0000
  C   C40       1.0  0.6022964825590881  0.9197482732494698  0.24544068004423827  1.0000
  C   C41       1.0  0.25963376391790677  0.05402770398001707  0.7943764840370787  1.0000
  C   C42       1.0  0.7403662354173601  0.94597229629332  0.20562351580842342  1.0000
  C   C43       1.0  0.12409471103698773  0.03608051192237276  0.7158597221385349  1.0000
  C   C44       1.0  0.8759052892942396  0.9639194879388784  0.28414027849936857  1.0000
  C   C45       1.0  0.9870611490847362  0.9761976070139334  0.7440072044732374  1.0000
  C   C46       1.0  0.012938851276738916  0.02380239325343731  0.2559927953669402  1.0000
  C   C47       1.0  0.1170362123014802  0.15434211138895468  0.7204528414520018  1.0000
  C   C48       1.0  0.8829637877784254  0.8456578880845146  0.27954715838893  1.0000
  C   C49       1.0  0.26033972549533435  0.9502715174354676  0.5624924807255272  1.0000
  C   C50       1.0  0.7396602738096849  0.0497284824317501  0.43750751991770126  1.0000
  C   C51       1.0  0.2273427949973058  0.8255626259317433  0.4737033455442622  1.0000
  C   C52       1.0  0.7726572053339216  0.1744373739295078  0.5262966550936413  1.0000
  C   C53       1.0  0.2984343666196867  0.03981908107393687  0.5156918037558833  1.0000
  C   C54       1.0  0.7015656334602188  0.9601809183995323  0.4843081960850487  1.0000
  C   C55       1.0  0.38562671241237073  0.9747876234001152  0.6518964125397384  1.0000
  C   C56       1.0  0.6143732879491043  0.02521237686725551  0.3481035873004391  1.0000
  N   N1        1.0  0.1249905304814995  0.9564128213663154  0.6041244617833584  1.0000
  N   N2        1.0  0.8750094695984061  0.04358717810715388  0.39587553805757353  1.0000
  O   O1        1.0  0.6733032764036131  0.22966977625682075  0.7922729103894007  1.0000
  O   O2        1.0  0.32669672293165386  0.7703302240165165  0.20772708945610158  1.0000
  O   O3        1.0  0.5200281235624483  0.09621348888521669  0.8338697512198621  1.0000
  O   O4        1.0  0.47997187651745726  0.9037865105882527  0.16613024862106993  1.0000
  O   O5        1.0  0.00800485227806165  0.9239305434238604  0.5330828569964524  1.0000
  O   O6        1.0  0.9919951480834132  0.0760694568435102  0.46691714284372515  1.0000
  F   F1        1.0  0.7531314323307717  0.5219447288517789  0.0562648374619622  1.0000
  F   F2        1.0  0.24686856803070334  0.47805527141559173  0.9437351623782153  1.0000
  F   F3        1.0  0.4806439302829257  0.3599645557249112  0.9843095567509536  1.0000
  F   F4        1.0  0.5193560690523411  0.6400354445484259  0.015690443094548683  1.0000
  F   F5        1.0  0.4117087428040752  0.1873488200745179  0.05306849226858977  1.0000
  F   F6        1.0  0.5882912575271522  0.8126511797867332  0.9469315083693138  1.0000
  F   F7        1.0  0.6118511090360894  0.17562684770760126  0.19126454655762984  1.0000
  F   F8        1.0  0.38814889157670757  0.8243731529475512  0.8087354540795194  1.0000
  F   F9        1.0  0.7199330792740626  0.6411617620623796  0.793775073540095  1.0000
  F   F10       1.0  0.28006692080584294  0.3588382374110896  0.2062249263008369  1.0000
  F   F11       1.0  0.6974481413815498  0.8013680541213637  0.7222317153653605  1.0000
  F   F12       1.0  0.3025518586983558  0.19863194535210565  0.27776828447557145  1.0000
  F   F13       1.0  0.47164911277086613  0.7424914130236194  0.5573477751502511  1.0000
  F   F14       1.0  0.5283508865644007  0.2575085872497178  0.4426522246952512  1.0000
  F   F15       1.0  0.2555011449288028  0.5323449867817706  0.47842346358926685  1.0000
  F   F16       1.0  0.7444988541248945  0.4676550126976653  0.5215765362569899  1.0000
  I   I1        1.0  0.934509014299017  0.34078851640417157  0.3190107643945632  1.0000
  I   I2        1.0  0.06549098578088842  0.6592114830692977  0.6809892354463686  1.0000
  I   I3        1.0  0.03649108190838029  0.5590102291253354  0.21198873395725557  1.0000
  I   I4        1.0  0.9635089184228471  0.4409897707359158  0.7880112666806481  1.0000
  I   I5        1.0  0.1972514688417653  0.31287959484738315  0.5360451424821796  1.0000
  I   I6        1.0  0.8027485304935017  0.6871204054259541  0.46395485736332265  1.0000
  I   I7        1.0  0.5323958483698062  0.3842892267545208  0.7356721158781174  1.0000
  I   I8        1.0  0.46760415199166877  0.6157107735128498  0.26432788396206003  1.0000
