data_image0
_chemical_formula_structural       H92C82N4F18Cl2I4
_chemical_formula_sum              "H92 C82 N4 F18 Cl2 I4"
_cell_length_a       7.946105126175176
_cell_length_b       15.591604529951267
_cell_length_c       17.801266714487557
_cell_angle_alpha    73.97095902511275
_cell_angle_beta     86.42114372205607
_cell_angle_gamma    87.83252825390991

_space_group_name_H-M_alt    "P 1"
_space_group_IT_number       1

loop_
  _space_group_symop_operation_xyz
  'x, y, z'

loop_
  _atom_site_type_symbol
  _atom_site_label
  _atom_site_symmetry_multiplicity
  _atom_site_fract_x
  _atom_site_fract_y
  _atom_site_fract_z
  _atom_site_occupancy
  H   H1        1.0  0.3818862815456208  0.536816755286893  0.1276309071306017  1.0000
  H   H2        1.0  0.6181137185501916  0.4631832449770589  0.8723690931565828  1.0000
  H   H3        1.0  0.3767418012018392  0.465019769421664  0.22262157735206461  1.0000
  H   H4        1.0  0.623258198936748  0.5349802302011438  0.777378422932959  1.0000
  H   H5        1.0  0.5305857539216504  0.8734897968907501  0.9172733315180941  1.0000
  H   H6        1.0  0.4694142462360915  0.12651020355879716  0.08272666818376236  1.0000
  H   H7        1.0  0.4638964675414501  0.9074032233315904  0.7778257019845426  1.0000
  H   H8        1.0  0.5361035325971372  0.09259677629121768  0.22217429830048097  1.0000
  H   H9        1.0  0.26861659981728114  0.6431489665074439  0.8199066423213872  1.0000
  H   H10       1.0  0.7313834002785312  0.3568510337565079  0.18009335796579742  1.0000
  H   H11       1.0  0.12324848521219543  0.38149030613420243  0.9742185301711902  1.0000
  H   H12       1.0  0.8767515149455464  0.6185096943153451  0.025781469530666144  1.0000
  H   H13       1.0  0.11534771793897784  0.20466941060998073  0.20845962851936686  1.0000
  H   H14       1.0  0.8846522822615389  0.7953305891984228  0.7915403711803286  1.0000
  H   H15       1.0  0.5187088169016194  0.37591019659432917  0.5501375090398042  1.0000
  H   H16       1.0  0.48129118319419295  0.6240898036696227  0.4498624912473804  1.0000
  H   H17       1.0  0.48003196016011485  0.22383720652811656  0.6341231391410594  1.0000
  H   H18       1.0  0.5199680399356975  0.7761627937358353  0.36587686114612517  1.0000
  H   H19       1.0  0.27313530744250125  0.1492143663536007  0.4424104332537547  1.0000
  H   H20       1.0  0.7268646926533112  0.850785633910351  0.5575895670334299  1.0000
  H   H21       1.0  0.7526847275805917  0.7858796731561198  0.20249057927558045  1.0000
  H   H22       1.0  0.24731527261992486  0.21412032665228373  0.797509420424115  1.0000
  H   H23       1.0  0.791506504704843  0.8705774462268853  0.24631836080312583  1.0000
  H   H24       1.0  0.2084934953909695  0.12942255403706648  0.7536816394840589  1.0000
  H   H25       1.0  0.9382194627575957  0.8698998964951121  0.08270797198645607  1.0000
  H   H26       1.0  0.06178053733821686  0.13010010376883974  0.9172920283007284  1.0000
  H   H27       1.0  0.961271612936961  0.9550262923864963  0.12935527937836142  1.0000
  H   H28       1.0  0.0387283872207808  0.04497370806305104  0.8706447203234949  1.0000
  H   H29       1.0  0.6275583060525056  0.8943900511651688  0.08612053834556926  1.0000
  H   H30       1.0  0.3724416940433069  0.10560994909878299  0.9138794619416154  1.0000
  H   H31       1.0  0.6447305151835058  0.9751309559347476  0.13767792598537618  1.0000
  H   H32       1.0  0.3552694849123068  0.02486904432920407  0.8623220743018085  1.0000
  H   H33       1.0  0.8118485342511673  0.07312711307707627  0.023921452132122288  1.0000
  H   H34       1.0  0.18815146594934928  0.9268728867313274  0.9760785475675733  1.0000
  H   H35       1.0  0.6157911676686066  0.04850225031758503  0.9937703974531754  1.0000
  H   H36       1.0  0.3842088324699806  0.9514977493052228  0.006229602831848116  1.0000
  H   H37       1.0  0.8016700133647869  0.9916114883344189  0.971690727324708  1.0000
  H   H38       1.0  0.19832998677380037  0.008388511288388972  0.028309272960315653  1.0000
  H   H39       1.0  0.17362375709559422  0.879352488822523  0.18074295212112998  1.0000
  H   H40       1.0  0.8263762430429931  0.12064751080028482  0.8192570481638936  1.0000
  H   H41       1.0  0.2498343106594291  0.8027038775510423  0.2646644842854108  1.0000
  H   H42       1.0  0.7501656882201783  0.19729612207346017  0.7353355160024824  1.0000
  H   H43       1.0  0.977144611253561  0.9467656001063353  0.2738798834888847  1.0000
  H   H44       1.0  0.022855388904180773  0.05323440034321218  0.7261201162129717  1.0000
  H   H45       1.0  0.09070174902330072  0.8798096985556215  0.35172545328008437  1.0000
  H   H46       1.0  0.9092982511152865  0.12019030106718637  0.6482745470049392  1.0000
  H   H47       1.0  0.2333190428398163  0.023707964230719265  0.21030428253105715  1.0000
  H   H48       1.0  0.7666809572559962  0.9762920360332326  0.7896957177561273  1.0000
  H   H49       1.0  0.36046871409403425  0.9522600197511769  0.2801413000596495  1.0000
  H   H50       1.0  0.6395312860017781  0.04773998051277495  0.7198587002275351  1.0000
  H   H51       1.0  0.29941189606961677  0.09853087384353623  0.31307216120484493  1.0000
  H   H52       1.0  0.7005881040261958  0.9014691264204157  0.6869278390823396  1.0000
  H   H53       1.0  0.21228904172389793  0.008140028020506732  0.38721581228340096  1.0000
  H   H54       1.0  0.7877109584146893  0.9918599716023012  0.6127841880016226  1.0000
  H   H55       1.0  0.08005492981433043  0.0781037335684612  0.31855426819488053  1.0000
  H   H56       1.0  0.9199450703861862  0.9218962662399425  0.6814457315048149  1.0000
  H   H57       1.0  0.8364152968566798  0.6919946574449901  0.3187189248238357  1.0000
  H   H58       1.0  0.16358470208485695  0.30800534236510807  0.6812810748787291  1.0000
  H   H59       1.0  0.8805668369749728  0.7858608191531241  0.3501308861740742  1.0000
  H   H60       1.0  0.1194331631208396  0.21413918111082778  0.6498691141131104  1.0000
  H   H61       1.0  0.1717260052104896  0.7266174179238845  0.3839750995155031  1.0000
  H   H62       1.0  0.8282739949280976  0.2733825816989234  0.6160249007695203  1.0000
  H   H63       1.0  0.13308983798418783  0.6301442225844528  0.35513911490499495  1.0000
  H   H64       1.0  0.866910162173554  0.36985577786509466  0.6448608847968614  1.0000
  H   H65       1.0  0.9118390912337643  0.6934794578436358  0.4780496312031771  1.0000
  H   H66       1.0  0.08816090892397775  0.30652054260591155  0.5219503684986792  1.0000
  H   H67       1.0  0.8928336371147885  0.5927205655723005  0.4536670078201586  1.0000
  H   H68       1.0  0.1071663630857281  0.40727943423610297  0.5463329918795368  1.0000
  H   H69       1.0  0.19175493743913388  0.5480981762519122  0.5021876574913902  1.0000
  H   H70       1.0  0.8082450626994534  0.4519018233708957  0.4978123427936334  1.0000
  H   H71       1.0  0.040503342551676993  0.5616213314797964  0.5761877684974986  1.0000
  H   H72       1.0  0.9594966562851557  0.4383786687858499  0.4238122317925555  1.0000
  H   H73       1.0  0.18868483391366886  0.6461284901845715  0.5342273525234538  1.0000
  H   H74       1.0  0.8113151662249184  0.3538715094382363  0.46577264776156974  1.0000
  H   H75       1.0  0.1089486727247469  0.7636231147306616  0.1386169273597529  1.0000
  H   H76       1.0  0.8910513273710654  0.2363768855332904  0.8613830729274317  1.0000
  H   H77       1.0  0.18614163574763817  0.6907757269404147  0.22421134612394175  1.0000
  H   H78       1.0  0.8138583644528785  0.3092242728679887  0.7757886535757537  1.0000
  H   H79       1.0  0.8246434563610091  0.6728606777744145  0.17646158495966982  1.0000
  H   H80       1.0  0.17535654383950755  0.327139322033989  0.8235384147400255  1.0000
  H   H81       1.0  0.003684591578322995  0.6346425421869443  0.13135617767996846  1.0000
  H   H82       1.0  0.9963154085794188  0.3653574582626032  0.868643822021888  1.0000
  H   H83       1.0  0.8860975752015959  0.5649965774456913  0.30385039041941764  1.0000
  H   H84       1.0  0.11390242499892068  0.4350034223627121  0.6961496092802778  1.0000
  H   H85       1.0  0.08452911345847895  0.5375749375331899  0.2646508430115467  1.0000
  H   H86       1.0  0.9154708866801083  0.462425062089618  0.7353491572734769  1.0000
  H   H87       1.0  0.7382064400159902  0.5069457594553909  0.20873576713333056  1.0000
  H   H88       1.0  0.2617935601225971  0.493054240167417  0.791264233151693  1.0000
  H   H89       1.0  0.8705549442999684  0.42293957460664194  0.26646150599724316  1.0000
  H   H90       1.0  0.12944505583861893  0.5770604250161661  0.7335384942877804  1.0000
  H   H91       1.0  0.9357757350198638  0.47853543566568896  0.16822882633092898  1.0000
  H   H92       1.0  0.0642242651187235  0.5214645639571189  0.8317711739540946  1.0000
  C   C1        1.0  0.43540008041694805  0.7401471961275156  0.947755226426621  1.0000
  C   C2        1.0  0.5645999197835685  0.259852803680888  0.0522447732730743  1.0000
  C   C3        1.0  0.4732264559780426  0.8230559040527786  0.8959908665504053  1.0000
  C   C4        1.0  0.5267735441177699  0.1769440962111731  0.10400913373677938  1.0000
  C   C5        1.0  0.43639662274592184  0.8419875820491508  0.817500492812788  1.0000
  C   C6        1.0  0.5636033761956148  0.15801241776094743  0.18249950688977695  1.0000
  C   C7        1.0  0.36270210957641075  0.7769297366190304  0.7901932999317479  1.0000
  C   C8        1.0  0.6372978893651261  0.2230702631910677  0.209806699770817  1.0000
  C   C9        1.0  0.3261875189460821  0.6938037848414801  0.8407633356217553  1.0000
  C   C10       1.0  0.6738124811497302  0.3061962154224718  0.1592366646654292  1.0000
  C   C11       1.0  0.36116644994396924  0.6739503821463388  0.9205008685636256  1.0000
  C   C12       1.0  0.638833550194618  0.32604961747646893  0.07949913172139805  1.0000
  C   C13       1.0  0.31670366984186094  0.5898028777925651  0.9701648622994395  1.0000
  C   C14       1.0  0.6832963303586557  0.4101971220158382  0.029835137400255986  1.0000
  C   C15       1.0  0.27198892400247543  0.5158700184618982  0.008820589254670799  1.0000
  C   C16       1.0  0.728011076093337  0.48412998180205374  0.9911794110325138  1.0000
  C   C17       1.0  0.22939237810303922  0.43275607149439826  0.06056291451182513  1.0000
  C   C18       1.0  0.7706076219927732  0.5672439287695535  0.9394370857753593  1.0000
  C   C19       1.0  0.26987140729504194  0.41603243169886783  0.14069044736389422  1.0000
  C   C20       1.0  0.7301285928007705  0.583967568565084  0.8593095529232905  1.0000
  C   C21       1.0  0.15132319719383455  0.3671477921490245  0.03556184965720752  1.0000
  C   C22       1.0  0.8486768029019779  0.6328522081149273  0.9644381506299771  1.0000
  C   C23       1.0  0.11173815566484893  0.28503815865371895  0.08826543827770489  1.0000
  C   C24       1.0  0.8882618444928929  0.7149618417958286  0.9117345614241514  1.0000
  C   C25       1.0  0.14731279173515502  0.26807733496169367  0.1668361653020744  1.0000
  C   C26       1.0  0.8526872084034323  0.7319226646611143  0.8331638349829492  1.0000
  C   C27       1.0  0.2240519000170188  0.332216457847348  0.19383291631561692  1.0000
  C   C28       1.0  0.775948100140723  0.6677835426021995  0.8061670833862395  1.0000
  C   C29       1.0  0.2606356788802778  0.3154813396208498  0.2728181458281944  1.0000
  C   C30       1.0  0.7393643212583094  0.684518660001958  0.7271818544568291  1.0000
  C   C31       1.0  0.29984331675206966  0.30571537504172547  0.339864059452106  1.0000
  C   C32       1.0  0.7001566833865176  0.6942846245810824  0.6601359408329175  1.0000
  C   C33       1.0  0.34840946420905905  0.2859173953225328  0.4175967712874551  1.0000
  C   C34       1.0  0.6515905359914574  0.7140826044858707  0.5824032284122403  1.0000
  C   C35       1.0  0.4211429860372447  0.3499328914351084  0.4480891686089418  1.0000
  C   C36       1.0  0.5788570141013426  0.6500671081876994  0.5519108316760818  1.0000
  C   C37       1.0  0.4670587573405456  0.3264382897460705  0.5256303749530636  1.0000
  C   C38       1.0  0.5329412427552669  0.6735617105178813  0.47436962533412097  1.0000
  C   C39       1.0  0.4456199262341225  0.2395617590812128  0.5733516296405939  1.0000
  C   C40       1.0  0.5543800738616899  0.760438241182739  0.4266483706465906  1.0000
  C   C41       1.0  0.37600898679626865  0.17581154221143303  0.5430142783644023  1.0000
  C   C42       1.0  0.6239910133423188  0.8241884574113748  0.4569857219206213  1.0000
  C   C43       1.0  0.3269122859134031  0.19865433383451736  0.46623938481590865  1.0000
  C   C44       1.0  0.6730877142871136  0.8013456659738861  0.5337606148837867  1.0000
  C   C45       1.0  0.3106434927397338  0.799023608073031  0.7074322070461743  1.0000
  C   C46       1.0  0.689356507418008  0.20097639237651643  0.2925677926556821  1.0000
  C   C47       1.0  0.0438718978651691  0.21206102854417214  0.060967962894174624  1.0000
  C   C48       1.0  0.9561281022925727  0.7879389719053754  0.9390320368076818  1.0000
  C   C49       1.0  0.36026879976249837  0.0801339044297522  0.5892225477872314  1.0000
  C   C50       1.0  0.6397311991790384  0.9198660953803459  0.4107774519153336  1.0000
  C   C51       1.0  0.8450746483062256  0.8358303984759831  0.2043990699601525  1.0000
  C   C52       1.0  0.15492535178958675  0.16416960178796874  0.795600930327032  1.0000
  C   C53       1.0  0.8771674915430825  0.9023660902015885  0.12499152188132659  1.0000
  C   C54       1.0  0.12283250855273002  0.09763391006236329  0.8750084784058579  1.0000
  C   C55       1.0  0.7102629839045812  0.9462011719274709  0.09360856796824912  1.0000
  C   C56       1.0  0.28973701619123116  0.05379882833648084  0.9063914323189355  1.0000
  C   C57       1.0  0.736283077471408  0.018827998914703933  0.016503262383218063  1.0000
  C   C58       1.0  0.2637169227291086  0.9811720008936994  0.9834967373164775  1.0000
  C   C59       1.0  0.14097593515800455  0.8458143255414996  0.2424473494987761  1.0000
  C   C60       1.0  0.8590240649805827  0.15418567408130834  0.7575526507862475  1.0000
  C   C61       1.0  0.09985025804013951  0.9133008356270554  0.28853517754837893  1.0000
  C   C62       1.0  0.9001497421176022  0.08669916482249189  0.7114648221534776  1.0000
  C   C63       1.0  0.234749846172917  0.9845775514216987  0.2722411652154241  1.0000
  C   C64       1.0  0.7652501539228955  0.01542244884225325  0.7277588350717605  1.0000
  C   C65       1.0  0.20534950242010652  0.04607320832420747  0.3254708968382438  1.0000
  C   C66       1.0  0.7946504977376353  0.95392679212534  0.6745291028636126  1.0000
  C   C67       1.0  0.9387887996879938  0.7345693014048064  0.3248099093623409  1.0000
  C   C68       1.0  0.06121120051252276  0.26543069840359734  0.6751900903373546  1.0000
  C   C69       1.0  0.0712760014155795  0.682531916444245  0.37823657818210193  1.0000
  C   C70       1.0  0.9287239987849373  0.31746808336415855  0.6217634215175935  1.0000
  C   C71       1.0  0.9851902250219344  0.6412252755932556  0.45898294632682296  1.0000
  C   C72       1.0  0.014809775073878114  0.3587747246706965  0.5410170539603615  1.0000
  C   C73       1.0  0.10819978994785365  0.596801297643508  0.5212426152098262  1.0000
  C   C74       1.0  0.8918002101907336  0.4031987019792999  0.47875738507519744  1.0000
  C   C75       1.0  0.06989160425550418  0.7198924488586822  0.19612754758881054  1.0000
  C   C76       1.0  0.9301083959450124  0.28010755094972123  0.8038724521108849  1.0000
  C   C77       1.0  0.95518939388911  0.6480211298486604  0.18643997824699463  1.0000
  C   C78       1.0  0.044810606268631877  0.3519788706008869  0.8135600214548618  1.0000
  C   C79       1.0  0.95409530139853  0.5587816301509367  0.2497961010621058  1.0000
  C   C80       1.0  0.045904698801986686  0.4412183696574668  0.7502038986375896  1.0000
  C   C81       1.0  0.869973830466571  0.48758406991529374  0.22187389469163074  1.0000
  C   C82       1.0  0.13002616973394562  0.5124159298931097  0.7781261050080647  1.0000
  N   N1        1.0  0.3483437346187776  0.4773109061676731  0.16555248500186043  1.0000
  N   N2        1.0  0.6516562655389644  0.5226890942818744  0.834447514699996  1.0000
  N   N3        1.0  0.9985943484238404  0.7836751072674754  0.2420065990745769  1.0000
  N   N4        1.0  0.0014056516719720253  0.21632489299647636  0.7579934012126077  1.0000
  F   F1        1.0  0.15723919380953533  0.8442502377111426  0.6994751166668861  1.0000
  F   F2        1.0  0.8427608063909813  0.15574976209726102  0.30052488303280933  1.0000
  F   F3        1.0  0.4213097031014539  0.8532130928993488  0.6558369209157916  1.0000
  F   F4        1.0  0.5786902958400829  0.14678690691074933  0.34416307878677344  1.0000
  F   F5        1.0  0.29181128292197756  0.7254130072399241  0.6817495860014177  1.0000
  F   F6        1.0  0.7081887172166097  0.2745869923828838  0.318250414283606  1.0000
  F   F7        1.0  0.9450385756765226  0.15488105499655277  0.11715771657656714  1.0000
  F   F8        1.0  0.05496142326501426  0.8451189448135452  0.8828422831259978  1.0000
  F   F9        1.0  0.1699866365465826  0.15811947691950326  0.039506414733260956  1.0000
  F   F10       1.0  0.8300133635492298  0.8418805233444487  0.9604935855539236  1.0000
  F   F11       1.0  0.9505383614768411  0.24246669509108912  0.996406499242472  1.0000
  F   F12       1.0  0.04946163866174602  0.7575333045317187  0.0035935010425514717  1.0000
  F   F13       1.0  0.21470726469945628  0.04355841316179671  0.5763199460556727  1.0000
  F   F14       1.0  0.7852927353963562  0.9564415871021551  0.42368005423151184  1.0000
  F   F15       1.0  0.49044955315099553  0.028551041862426695  0.5708469161352524  1.0000
  F   F16       1.0  0.5095504470067462  0.9714489585871205  0.4291530835666041  1.0000
  F   F17       1.0  0.36057458388198427  0.06832729892617735  0.6689448669142116  1.0000
  F   F18       1.0  0.6394254162566031  0.9316727006966306  0.33105513337081194  1.0000
  Cl  Cl1       1.0  0.5040537944997441  0.6738942233984744  0.2561719012392556  1.0000
  Cl  Cl2       1.0  0.4959462057007725  0.326105776409929  0.7438280984604398  1.0000
  I   I1        1.0  0.4779925275305355  0.7148962623322681  0.06831234686079245  1.0000
  I   I2        1.0  0.5220074726080517  0.28510373729053967  0.9316876534242312  1.0000
  I   I3        1.0  0.4584959444622897  0.48048499080754936  0.3737475595542706  1.0000
  I   I4        1.0  0.5415040556762976  0.5195150088152585  0.626252440730753  1.0000
