data_image0
_chemical_formula_structural       H14C24N38O30
_chemical_formula_sum              "H14 C24 N38 O30"
_cell_length_a       8.274510786191868
_cell_length_b       11.490505876481363
_cell_length_c       11.78371756383678
_cell_angle_alpha    90.0
_cell_angle_beta     88.78541339206988
_cell_angle_gamma    90.0

_space_group_name_H-M_alt    "P 1"
_space_group_IT_number       1

loop_
  _space_group_symop_operation_xyz
  'x, y, z'

loop_
  _atom_site_type_symbol
  _atom_site_label
  _atom_site_symmetry_multiplicity
  _atom_site_fract_x
  _atom_site_fract_y
  _atom_site_fract_z
  _atom_site_occupancy
  H   H1        1.0  0.5101401437296664  0.34517969118471586  0.6011021047365793  1.0000
  H   H2        1.0  0.4898598564972352  0.8451796913378264  0.39889789543587756  1.0000
  H   H3        1.0  0.5293085804246684  0.13607112487538145  0.6146334063967903  1.0000
  H   H4        1.0  0.47069141980211593  0.6360711250284921  0.38536659292703956  1.0000
  H   H5        1.0  0.6918839489058046  0.26924616315912625  0.9092778692029245  1.0000
  H   H6        1.0  0.3081160513209796  0.7692461633122368  0.09072213012090528  1.0000
  H   H7        1.0  0.09863156796369911  0.34115845308635034  0.812689637464791  1.0000
  H   H8        1.0  0.9013684322632025  0.8411584532394609  0.18731036270766585  1.0000
  H   H9        1.0  0.11405368888992537  0.12884453355793915  0.818585045798995  1.0000
  H   H10       1.0  0.8859463113368589  0.6288445337110498  0.18141495352483503  1.0000
  H   H11       1.0  0.457312159491044  0.26340791976748346  0.028243839464942234  1.0000
  H   H12       1.0  0.5426878407358576  0.7634079190503102  0.9717561607075145  1.0000
  H   H13       1.0  0.2006153680296384  0.19626763122900856  0.31671456340943044  1.0000
  H   H14       1.0  0.7993846321972632  0.6962676305118355  0.6832854367630263  1.0000
  C   C1        1.0  0.46705727668528546  0.3124299381237797  0.6835113993627588  1.0000
  C   C2        1.0  0.5329427235416161  0.8124299382768904  0.316488600809698  1.0000
  C   C3        1.0  0.47836982079172463  0.1754400242835357  0.691980173501005  1.0000
  C   C4        1.0  0.5216301782263747  0.6754400244366463  0.3080198266895265  1.0000
  C   C5        1.0  0.5835679050157964  0.2602501762886462  0.8583691010258663  1.0000
  C   C6        1.0  0.4164320952111053  0.7602501764417567  0.14163089914659052  1.0000
  C   C7        1.0  0.2227754202535722  0.3082230232568773  0.8076773252104427  1.0000
  C   C8        1.0  0.7772245799733293  0.8082230234099879  0.19232267496201413  1.0000
  C   C9        1.0  0.23299251963059692  0.17059814520544617  0.813108018560794  1.0000
  C   C10       1.0  0.7670074805963047  0.6705981453585568  0.1868919816116629  1.0000
  C   C11       1.0  0.4251824673404918  0.2575757744537454  0.9387530622330613  1.0000
  C   C12       1.0  0.5748175328864099  0.757575774606856  0.061246937939395445  1.0000
  C   C13       1.0  0.007942650505931893  0.2116754176139727  0.21293416580302174  1.0000
  C   C14       1.0  0.9920573497209697  0.7116754177670833  0.7870658343694351  1.0000
  C   C15       1.0  0.8413790083102061  0.2240175260924401  0.18268887504417597  1.0000
  C   C16       1.0  0.15862099191669546  0.7240175262455506  0.8173111251282807  1.0000
  C   C17       1.0  0.7007760289286601  0.23598761526680098  0.25678487252232085  1.0000
  C   C18       1.0  0.29922397129824146  0.7359876154199116  0.743215127650136  1.0000
  C   C19       1.0  0.6991609132446137  0.24142344643658817  0.37812359162770565  1.0000
  C   C20       1.0  0.3008390857734856  0.7414234465896987  0.621876408562826  1.0000
  C   C21       1.0  0.8376625296022092  0.2419256497392131  0.4508792140162911  1.0000
  C   C22       1.0  0.16233747062457515  0.7419256498923236  0.5491207853075388  1.0000
  C   C23       1.0  0.005663916594548009  0.22749764354156368  0.4200278596790474  1.0000
  C   C24       1.0  0.9943360836322362  0.7274976436946742  0.5799721396447826  1.0000
  N   N1        1.0  0.5685683235172972  0.35264600911033456  0.7754317702597334  1.0000
  N   N2        1.0  0.43143167670960425  0.8526460083931615  0.22456822991272346  1.0000
  N   N3        1.0  0.5846211127187716  0.1546270224391614  0.7888902466996252  1.0000
  N   N4        1.0  0.41537888750801266  0.654627022592272  0.21110975262420476  1.0000
  N   N5        1.0  0.30008000269587276  0.34576357235340593  0.7025452982907839  1.0000
  N   N6        1.0  0.6999199963222267  0.8457635725065166  0.29745470189974765  1.0000
  N   N7        1.0  0.319730600412563  0.12885957119003796  0.7138919951881448  1.0000
  N   N8        1.0  0.6802693998143384  0.6288595713431486  0.28610800498431194  1.0000
  N   N9        1.0  0.3142761260650132  0.348636799203024  0.9058037285757029  1.0000
  N   N10       1.0  0.6857238741618884  0.8486367993561345  0.09419627159675391  1.0000
  N   N11       1.0  0.3250792866298154  0.15586210557236338  0.9165690811836716  1.0000
  N   N12       1.0  0.6749207135970863  0.655862105725474  0.08343091898878521  1.0000
  N   N13       1.0  0.6959286784045311  0.4304337374843709  0.7540402085520428  1.0000
  N   N14       1.0  0.3040713218222532  0.9304337376374815  0.24595979077178726  1.0000
  N   N15       1.0  0.7385196678801037  0.10341008679453045  0.7611181132475452  1.0000
  N   N16       1.0  0.26148033234679796  0.6034100869476411  0.23888188692491166  1.0000
  N   N17       1.0  0.2451291352447617  0.44687208598098555  0.6492712416195369  1.0000
  N   N18       1.0  0.75487086498214  0.9468720861340961  0.3507287585529199  1.0000
  N   N19       1.0  0.2663479946445074  0.03176287222889111  0.6536006340742194  1.0000
  N   N20       1.0  0.7336520055823942  0.5317628723820017  0.3463993660982374  1.0000
  N   N21       1.0  0.22937051748747483  0.4092773573725458  0.9938021921021463  1.0000
  N   N22       1.0  0.7706294815306245  0.9092773575256563  0.006197808088385306  1.0000
  N   N23       1.0  0.3627501456233719  0.04832559035860658  0.9591774695843682  1.0000
  N   N24       1.0  0.6372498546035297  0.5483255905117171  0.040822530588088594  1.0000
  N   N25       1.0  0.0793419040500377  0.21233663045191667  0.3165179121795298  1.0000
  N   N26       1.0  0.9206580949680616  0.7123366306050273  0.6834820880110017  1.0000
  N   N27       1.0  0.09632622138383971  0.19834964226117435  0.1193660985447913  1.0000
  N   N28       1.0  0.903673778843062  0.698349642414285  0.8806339016276655  1.0000
  N   N29       1.0  0.8322549229405529  0.2185684378910098  0.07127053093285024  1.0000
  N   N30       1.0  0.16774507728634871  0.7185684380441204  0.9287294692396065  1.0000
  N   N31       1.0  0.5507620587993285  0.24056063847090128  0.22157593890072094  1.0000
  N   N32       1.0  0.4492379414274558  0.7405606386240119  0.778424060423109  1.0000
  N   N33       1.0  0.548446959518888  0.24794612618678127  0.41562398038250153  1.0000
  N   N34       1.0  0.45155304070801355  0.7479461263398919  0.5843760197899553  1.0000
  N   N35       1.0  0.8252755017377883  0.25606319091853535  0.5616069048279787  1.0000
  N   N36       1.0  0.1747244984891133  0.756063191071646  0.43839309534447807  1.0000
  N   N37       1.0  0.09183655699358968  0.23161965004929663  0.5130485118183283  1.0000
  N   N38       1.0  0.9081634432333119  0.7316196502024072  0.48695148835412855  1.0000
  O   O1        1.0  0.6781540409547294  0.4970404533441573  0.6729709552330448  1.0000
  O   O2        1.0  0.3218459592721721  0.9970404534972679  0.32702904493941193  1.0000
  O   O3        1.0  0.8087989432706408  0.4285236962524246  0.8203634016898345  1.0000
  O   O4        1.0  0.19120105695626077  0.9285236964055351  0.17963659848262237  1.0000
  O   O5        1.0  0.7385612421604066  0.030607982257757512  0.6851908063823878  1.0000
  O   O6        1.0  0.26143875806649497  0.5306079824108682  0.31480919379006894  1.0000
  O   O7        1.0  0.8518351526336843  0.13394224036298863  0.8198342030745959  1.0000
  O   O8        1.0  0.14816484759310006  0.6339422396458155  0.18016579624923412  1.0000
  O   O9        1.0  0.32492280961826125  0.48177606621573693  0.5668314371612512  1.0000
  O   O10       1.0  0.6750771906086404  0.9817760663688475  0.43316856301120554  1.0000
  O   O11       1.0  0.11876110761826733  0.48996846705621466  0.6881103146605015  1.0000
  O   O12       1.0  0.8812388926086343  0.9899684672093252  0.3118896855119554  1.0000
  O   O13       1.0  0.13404283542420878  0.9906845444724545  0.6826535233990403  1.0000
  O   O14       1.0  0.8659571648026929  0.4906845443193438  0.3173464767734165  1.0000
  O   O15       1.0  0.35552161174398217  0.9979924620613461  0.5753400057449791  1.0000
  O   O16       1.0  0.6444783884829194  0.4979924627785191  0.4246599944274777  1.0000
  O   O17       1.0  0.10085364218875069  0.45447124662183447  0.9676101534719951  1.0000
  O   O18       1.0  0.8991463580381509  0.954471246774945  0.032389846700461744  1.0000
  O   O19       1.0  0.29706211354807943  0.4146311599519356  0.08541538055405029  1.0000
  O   O20       1.0  0.7029378866788222  0.9146311601050462  0.9145846196184065  1.0000
  O   O21       1.0  0.2947358174898091  0.9636057662755034  0.9166277937645415  1.0000
  O   O22       1.0  0.7052641827369752  0.46360576612239285  0.08337220555928848  1.0000
  O   O23       1.0  0.4595099337930584  0.0471964964667045  0.037849403105983094  1.0000
  O   O24       1.0  0.5404900664338433  0.5471964957495314  0.9621505970664737  1.0000
  O   O25       1.0  0.9866494890109956  0.20327635311346756  0.03165471185232431  1.0000
  O   O26       1.0  0.013350511215906052  0.7032763523962945  0.9683452883201324  1.0000
  O   O27       1.0  0.4562908822522167  0.24825952840237658  0.3194402648455548  1.0000
  O   O28       1.0  0.5437091167658825  0.7482595285554872  0.6805597353449767  1.0000
  O   O29       1.0  0.9792916383424928  0.24967301186207727  0.6009093878477837  1.0000
  O   O30       1.0  0.020708361884291374  0.7496730120151879  0.3990906114760463  1.0000
