data_image0
_chemical_formula_structural       H32C36N4O4S2I4
_chemical_formula_sum              "H32 C36 N4 O4 S2 I4"
_cell_length_a       8.564206268948931
_cell_length_b       9.533748241186572
_cell_length_c       12.902903720472745
_cell_angle_alpha    92.87098151307549
_cell_angle_beta     96.59607769243304
_cell_angle_gamma    113.81472416619376

_space_group_name_H-M_alt    "P 1"
_space_group_IT_number       1

loop_
  _space_group_symop_operation_xyz
  'x, y, z'

loop_
  _atom_site_type_symbol
  _atom_site_label
  _atom_site_symmetry_multiplicity
  _atom_site_fract_x
  _atom_site_fract_y
  _atom_site_fract_z
  _atom_site_occupancy
  H   H1        1.0  0.0980229252358402  0.46295263815562365  0.38949911903701734  1.0000
  H   H2        1.0  0.9019770745586634  0.5370473622176987  0.6105008813818873  1.0000
  H   H3        1.0  0.11752884336359515  0.46486822255522875  0.04898329074175072  1.0000
  H   H4        1.0  0.8824711562417744  0.5351317776890334  0.9510167088925569  1.0000
  H   H5        1.0  0.41163126547257506  0.5635559964328576  0.0013911659691785076  1.0000
  H   H6        1.0  0.5883687336079583  0.4364440026656532  0.9986088336696637  1.0000
  H   H7        1.0  0.6090908807297247  0.8602686550356159  0.2919437702138778  1.0000
  H   H8        1.0  0.3909091195145005  0.13973134405299376  0.7080562294281384  1.0000
  H   H9        1.0  0.3143709491009613  0.7595826962171955  0.34135546860731186  1.0000
  H   H10       1.0  0.685629050504408  0.24041730402706638  0.6586445310269955  1.0000
  H   H11       1.0  0.7828737872491544  0.895671140803569  0.13919491130556752  1.0000
  H   H12       1.0  0.21712621299507087  0.10432885828504063  0.8608050883364488  1.0000
  H   H13       1.0  0.7116998998568594  0.7433716584401813  0.034928646564950254  1.0000
  H   H14       1.0  0.2883000994128081  0.2566283407873898  0.9650713538584891  1.0000
  H   H15       1.0  0.7841397746076133  0.715582210347927  0.16420899622649898  1.0000
  H   H16       1.0  0.21586022616144795  0.284417789886434  0.8357910034109824  1.0000
  H   H17       1.0  0.2137345968121838  0.8023440883758596  0.9628450856071098  1.0000
  H   H18       1.0  0.7862654029823198  0.19765591199746274  0.03715491481179487  1.0000
  H   H19       1.0  0.40538497774124954  0.25054714684942725  0.2247396501723345  1.0000
  H   H20       1.0  0.5946150215284178  0.7494528523781436  0.7752603502511047  1.0000
  H   H21       1.0  0.016996702355346366  0.8495614117504706  0.07026149043212028  1.0000
  H   H22       1.0  0.9830032974391573  0.15043858862285167  0.9297385099867843  1.0000
  H   H23       1.0  0.6219732869878295  0.2225302984366099  0.12622218390908369  1.0000
  H   H24       1.0  0.37802671209270383  0.7774697006619009  0.8737778157297585  1.0000
  H   H25       1.0  0.42569639029284084  0.02359534162097895  0.3840702179513019  1.0000
  H   H26       1.0  0.5743036104762205  0.9764046586133821  0.6159297816861796  1.0000
  H   H27       1.0  0.12294832865871021  0.8628737913257697  0.4019271238373685  1.0000
  H   H28       1.0  0.8770516709466593  0.1371262089184924  0.598072875796939  1.0000
  H   H29       1.0  0.12230924048166397  0.26031782225150896  0.5810458201387669  1.0000
  H   H30       1.0  0.8776907591237054  0.7396821779927532  0.41895417949554054  1.0000
  H   H31       1.0  0.422846956405121  0.4015016459266716  0.5547776062228454  1.0000
  H   H32       1.0  0.5771530445530743  0.5984983544367496  0.44522239419923304  1.0000
  C   C1        1.0  0.9904247895467939  0.40050161423262887  0.3262273798543416  1.0000
  C   C2        1.0  0.009575210247709806  0.5994983861406934  0.673772620564563  1.0000
  C   C3        1.0  0.19981879152192378  0.6054954385476146  0.19832037883372766  1.0000
  C   C4        1.0  0.8001812092471375  0.39450456168674647  0.8016796208037537  1.0000
  C   C5        1.0  0.2257963342157618  0.548842870191691  0.10298047849371376  1.0000
  C   C6        1.0  0.7742036653896077  0.4511571300525712  0.8970195211405937  1.0000
  C   C7        1.0  0.3919294243845473  0.6046183800845777  0.07697304709214615  1.0000
  C   C8        1.0  0.6080705752208222  0.3953816201596845  0.9230269525421614  1.0000
  C   C9        1.0  0.532424632516596  0.7150437142404363  0.14483916156618956  1.0000
  C   C10       1.0  0.4675753670887734  0.28495628600382583  0.8551608380681178  1.0000
  C   C11       1.0  0.5018019883668609  0.7717970202737687  0.23948420708495943  1.0000
  C   C12       1.0  0.4981980118773643  0.22820297881484095  0.7605157925570567  1.0000
  C   C13       1.0  0.3370159766592683  0.7170999341793637  0.2671225318606844  1.0000
  C   C14       1.0  0.662984023774091  0.2829000650383063  0.7328774685659288  1.0000
  C   C15       1.0  0.7120696107773932  0.7705862967918681  0.1186413050393866  1.0000
  C   C16       1.0  0.2879303888279763  0.22941370345239406  0.8813586945949209  1.0000
  C   C17       1.0  0.43860827829664495  0.009563266690938876  0.03260836249691335  1.0000
  C   C18       1.0  0.5613917226615505  0.9904367336724824  0.9673916379251652  1.0000
  C   C19       1.0  0.26467866035105075  0.9040640972241222  0.019797009764126145  1.0000
  C   C20       1.0  0.7353213400823085  0.09593590199354776  0.9802029906624872  1.0000
  C   C21       1.0  0.36814411898271737  0.15179106143474677  0.16599997464496088  1.0000
  C   C22       1.0  0.6318558808117861  0.8482089389385755  0.8340000257739437  1.0000
  C   C23       1.0  0.1524609842197413  0.92988918943892  0.08028699912477036  1.0000
  C   C24       1.0  0.847539014860792  0.07011080965959075  0.9197130005140718  1.0000
  C   C25       1.0  0.4898358392176309  0.13519119110632208  0.10981030418498446  1.0000
  C   C26       1.0  0.5101641605768725  0.8648088092670002  0.8901896962339202  1.0000
  C   C27       1.0  0.3532226324533853  0.07070333638851505  0.4282546257794078  1.0000
  C   C28       1.0  0.6467773679799739  0.9292966628291548  0.5717453746472055  1.0000
  C   C29       1.0  0.18299721969944213  0.9807565034698448  0.4391731077695997  1.0000
  C   C30       1.0  0.8170027799059273  0.019243496774417338  0.5608268918647077  1.0000
  C   C31       1.0  0.09150201525607711  0.04525255990674362  0.4943634851952017  1.0000
  C   C32       1.0  0.9084979857021181  0.9547474404566775  0.5056365152268769  1.0000
  C   C33       1.0  0.18141994529488864  0.20029874823906763  0.5364071358029437  1.0000
  C   C34       1.0  0.8185800544996149  0.7997012521342547  0.4635928646159609  1.0000
  C   C35       1.0  0.3522818912135838  0.2813003046338962  0.5217752489559673  1.0000
  C   C36       1.0  0.6477181095554775  0.7186996956004648  0.47822475068151404  1.0000
  N   N1        1.0  0.20119899676072184  0.052379021281936  0.15190410883537164  1.0000
  N   N2        1.0  0.7988010028446476  0.9476209789623261  0.8480958907989358  1.0000
  N   N3        1.0  0.4386186920738535  0.21864365726908902  0.4687198738192599  1.0000
  N   N4        1.0  0.5613813077206501  0.7813563431042332  0.5312801265996447  1.0000
  O   O1        1.0  0.8647587228841568  0.455841303783375  0.14181791589036769  1.0000
  O   O2        1.0  0.1352412769103467  0.5441586965899472  0.8581820845285368  1.0000
  O   O3        1.0  0.9735834252243155  0.6637409436452929  0.2909005495131209  1.0000
  O   O4        1.0  0.026416575733879774  0.33625905671812817  0.7090994509089577  1.0000
  S   S1        1.0  0.9907259808470978  0.5361845029591691  0.23397235741497835  1.0000
  S   S2        1.0  0.0092740189474057  0.46381549741415323  0.7660276430039262  1.0000
  I   I1        1.0  0.041363005747009185  0.21767020034467693  0.2521302310504731  1.0000
  I   I2        1.0  0.9586369933335241  0.7823297987538338  0.7478697685883691  1.0000
  I   I3        1.0  0.7540888594483016  0.3327443365872698  0.3970254428466075  1.0000
  I   I4        1.0  0.24591114034620185  0.6672556637860524  0.602974557572297  1.0000
