data_image0
_chemical_formula_structural       H28C40N4F8I4
_chemical_formula_sum              "H28 C40 N4 F8 I4"
_cell_length_a       6.305416410062926
_cell_length_b       7.915770688784025
_cell_length_c       20.40303616768609
_cell_angle_alpha    90.0
_cell_angle_beta     97.23459683370909
_cell_angle_gamma    90.0

_space_group_name_H-M_alt    "P 1"
_space_group_IT_number       1

loop_
  _space_group_symop_operation_xyz
  'x, y, z'

loop_
  _atom_site_type_symbol
  _atom_site_label
  _atom_site_symmetry_multiplicity
  _atom_site_fract_x
  _atom_site_fract_y
  _atom_site_fract_z
  _atom_site_occupancy
  H   H1        1.0  0.1960601315593489  0.45890078588898736  0.10338825591558432  1.0000
  H   H2        1.0  0.8039398689745112  0.958900785334144  0.3966117439255049  1.0000
  H   H3        1.0  0.8039398687566773  0.5410992142646268  0.8966117441114319  1.0000
  H   H4        1.0  0.1960601311466615  0.04109921481947017  0.603388255607459  1.0000
  H   H5        1.0  0.4879372237067612  0.4609780188769639  0.19629055905949605  1.0000
  H   H6        1.0  0.512062776827099  0.9609780195854215  0.30370944078159323  1.0000
  H   H7        1.0  0.512062776609265  0.5390219812766504  0.8037094409675202  1.0000
  H   H8        1.0  0.48793722348892715  0.039021980568192755  0.6962905592454229  1.0000
  H   H9        1.0  0.15359442330293335  0.14662616258509806  0.309218729147785  1.0000
  H   H10       1.0  0.8464055758390342  0.6466261632935556  0.1907812711853415  1.0000
  H   H11       1.0  0.8464055770130928  0.8533738375685161  0.6907812708792312  1.0000
  H   H12       1.0  0.15359442289024583  0.35337383686005863  0.8092187288396594  1.0000
  H   H13       1.0  0.8438337508084011  0.131066263891403  0.2208720770733352  1.0000
  H   H14       1.0  0.15616624972545903  0.6310662645998606  0.27912792276775406  1.0000
  H   H15       1.0  0.1561662493127716  0.8689337362622112  0.7791279224596287  1.0000
  H   H16       1.0  0.8438337505905672  0.3689337355537537  0.7208720772592621  1.0000
  H   H17       1.0  0.8940052042227516  0.481490067088525  0.03851404978741217  1.0000
  H   H18       1.0  0.10599479472436248  0.9814900665336818  0.46148595005166204  1.0000
  H   H19       1.0  0.10599479609327454  0.5185099330650892  0.9614859502396039  1.0000
  H   H20       1.0  0.8940052040049178  0.018509933619932542  0.5385140499733391  1.0000
  H   H21       1.0  0.6358802351654923  0.37410543412986397  0.012338354604333296  1.0000
  H   H22       1.0  0.3641197653683678  0.8741054335750206  0.487661645236756  1.0000
  H   H23       1.0  0.3641197651505338  0.6258945660237502  0.9876616454226828  1.0000
  H   H24       1.0  0.6358802349476584  0.12589456657859358  0.5123383547902602  1.0000
  H   H25       1.0  0.6807001025191527  0.19892402924596173  0.1112985596298757  1.0000
  H   H26       1.0  0.3192998982095609  0.6989240286911184  0.38870144070526585  1.0000
  H   H27       1.0  0.31929989779687346  0.8010759709076525  0.8887014403971405  1.0000
  H   H28       1.0  0.6807001021064654  0.3010759714624958  0.6112985593217504  1.0000
  C   C1        1.0  0.9487074911755278  0.8805553222854581  0.04411553906212597  1.0000
  C   C2        1.0  0.05129250796643992  0.3805553228403014  0.4558844612710005  1.0000
  C   C3        1.0  0.0512925091404984  0.11944467786815609  0.95588446096489  1.0000
  C   C4        1.0  0.9487074907628403  0.6194446773133127  0.5441155387540006  1.0000
  C   C5        1.0  0.14937551119638817  0.9560900874406939  0.05591605842302531  1.0000
  C   C6        1.0  0.850624489337472  0.4560900879955372  0.4440839414180639  1.0000
  C   C7        1.0  0.8506244891196381  0.04390991271292036  0.9440839416039909  1.0000
  C   C8        1.0  0.14937551097855417  0.543909912158077  0.5559160586089522  1.0000
  C   C9        1.0  0.8032631789450033  0.9227546018165473  0.989467781687676  1.0000
  C   C10       1.0  0.19673682115318897  0.42275460237139073  0.5105322185252672  1.0000
  C   C11       1.0  0.1967368213710229  0.07724539833706684  0.01053221833934029  1.0000
  C   C12       1.0  0.8032631775760913  0.5772453977822235  0.48946778149973386  1.0000
  C   C13       1.0  0.17713140868138752  0.3877214778781647  0.14793206188288718  1.0000
  C   C14       1.0  0.8228685918524726  0.8877214785866223  0.35206793795820207  1.0000
  C   C15       1.0  0.8228685916346387  0.6122785222754494  0.8520679381441291  1.0000
  C   C16       1.0  0.1771314084635536  0.11227852156699196  0.6479320620688142  1.0000
  C   C17       1.0  0.3422268394065083  0.3886767506238386  0.19980894906650282  1.0000
  C   C18       1.0  0.6577731595406059  0.8886767513322962  0.30019105077257136  1.0000
  C   C19       1.0  0.6577731593227719  0.6113232482664747  0.8001910509584984  1.0000
  C   C20       1.0  0.34222684077542037  0.11132324882131803  0.6998089492544448  1.0000
  C   C21       1.0  0.1568438889940254  0.21395714663636453  0.2627083306884569  1.0000
  C   C22       1.0  0.8431561101479422  0.7139571460815213  0.23729166964466958  1.0000
  C   C23       1.0  0.8431561097352548  0.7860428535172497  0.7372916693365442  1.0000
  C   C24       1.0  0.156843890168084  0.286042854072093  0.7627083303823466  1.0000
  C   C25       1.0  0.9837513092990277  0.20605354603198542  0.21325648634098152  1.0000
  C   C26       1.0  0.01624869123483243  0.706053546740443  0.28674351350010774  1.0000
  C   C27       1.0  0.016248691016998416  0.793946452858328  0.7867435136860346  1.0000
  C   C28       1.0  0.9837513090811938  0.29394645341317127  0.7132564865269084  1.0000
  C   C29       1.0  0.7777169541783504  0.3862668766204104  0.04838477621445147  1.0000
  C   C30       1.0  0.2222830463555098  0.886266876065567  0.45161522362663775  1.0000
  C   C31       1.0  0.22228304613767583  0.6137331235332038  0.9516152238125647  1.0000
  C   C32       1.0  0.7777169539605163  0.11373312408804714  0.5483847764003784  1.0000
  C   C33       1.0  0.8048845614037816  0.28990376935142315  0.10287089385106425  1.0000
  C   C34       1.0  0.19511543913007864  0.7899037687965798  0.39712910599002504  1.0000
  C   C35       1.0  0.19511543891224456  0.710096230802191  0.8971291061759518  1.0000
  C   C36       1.0  0.8048845611859476  0.21009623009373352  0.6028708940369912  1.0000
  C   C37       1.0  0.9894310441196827  0.295862570061357  0.15410957082798235  1.0000
  C   C38       1.0  0.010568956414177431  0.7958625707698146  0.3458904290131069  1.0000
  C   C39       1.0  0.010568956196343435  0.7041374300922572  0.8458904291990338  1.0000
  C   C40       1.0  0.9894310439018489  0.20413742938379967  0.6541095710139093  1.0000
  N   N1        1.0  0.333484991118929  0.3044882443872626  0.25681510362447424  1.0000
  N   N2        1.0  0.6665150096097845  0.8044882438324192  0.24318489671066726  1.0000
  N   N3        1.0  0.6665150091970972  0.6955117557663517  0.7431848964025419  1.0000
  N   N4        1.0  0.33348499070624155  0.1955117550578941  0.7568151033163488  1.0000
  F   F1        1.0  0.6122918737563747  0.8411764086893792  0.9807230056747032  1.0000
  F   F2        1.0  0.387708126146964  0.34117640798092164  0.5192769940441876  1.0000
  F   F3        1.0  0.3877081265596514  0.15882359146423497  0.01927699435231296  1.0000
  F   F4        1.0  0.6122918741690623  0.6588235909093916  0.48072300598282863  1.0000
  F   F5        1.0  0.8918970974363049  0.76025627656534  0.08608868569410377  1.0000
  F   F6        1.0  0.10810290309755537  0.26025627712018334  0.41391131414698557  1.0000
  F   F7        1.0  0.10810290287972141  0.2397437223249733  0.9139113143329124  1.0000
  F   F8        1.0  0.8918970972184708  0.7397437230334308  0.5860886858800307  1.0000
  I   I1        1.0  0.3744546264054274  0.8851233146416837  0.13770229748859725  1.0000
  I   I2        1.0  0.6255453743232863  0.38512331393322613  0.3622977028465443  1.0000
  I   I3        1.0  0.6255453739105988  0.1148766855119305  0.8622977025384189  1.0000
  I   I4        1.0  0.37445462599273993  0.614876686220388  0.6377022971804719  1.0000
