data_image0
_chemical_formula_structural       H10C18O4F8S2I2
_chemical_formula_sum              "H10 C18 O4 F8 S2 I2"
_cell_length_a       6.275020400476547
_cell_length_b       7.90978535819553
_cell_length_c       11.583474815163008
_cell_angle_alpha    79.07121416935091
_cell_angle_beta     74.25903278770429
_cell_angle_gamma    83.21181147605512

_space_group_name_H-M_alt    "P 1"
_space_group_IT_number       1

loop_
  _space_group_symop_operation_xyz
  'x, y, z'

loop_
  _atom_site_type_symbol
  _atom_site_label
  _atom_site_symmetry_multiplicity
  _atom_site_fract_x
  _atom_site_fract_y
  _atom_site_fract_z
  _atom_site_occupancy
  H   H1        1.0  0.11036776660648438  0.5924857467717406  0.42311064086867833  1.0000
  H   H2        1.0  0.8896322338347256  0.40751425366528593  0.5768893592928866  1.0000
  H   H3        1.0  0.7523026440965067  0.6965059054291399  0.05504570721095244  1.0000
  H   H4        1.0  0.24769735474698767  0.3034940950087455  0.9449542929586668  1.0000
  H   H5        1.0  0.538986808611679  0.5723584388920766  0.15637388929219614  1.0000
  H   H6        1.0  0.46101319182953127  0.4276415615449498  0.8436261108693689  1.0000
  H   H7        1.0  0.17067664239243857  0.5222096545032365  0.08837577288232465  1.0000
  H   H8        1.0  0.8293233584574224  0.47779034615281024  0.9116242263699151  1.0000
  H   H9        1.0  0.13143262482217533  0.6175580884317677  0.9430561929202451  1.0000
  H   H10       1.0  0.8685673760276857  0.3824419122242791  0.05694380633199485  1.0000
  C   C1        1.0  0.24796033842394236  0.35846104054890904  0.438236902150234  1.0000
  C   C2        1.0  0.7520396606078231  0.6415389586168585  0.5617630980149162  1.0000
  C   C3        1.0  0.4482173746854978  0.24853275060174979  0.38754346587785926  1.0000
  C   C4        1.0  0.5517826247549188  0.751467248783038  0.6124565333779657  1.0000
  C   C5        1.0  0.6600964123151365  0.3113290055917633  0.34474092714209975  1.0000
  C   C6        1.0  0.3399035869370088  0.6886709950651425  0.6552590721181943  1.0000
  C   C7        1.0  0.8411828063005673  0.21184679226456238  0.2872268159614318  1.0000
  C   C8        1.0  0.15881719432891395  0.7881532069003462  0.7127731841956642  1.0000
  C   C9        1.0  0.8201686405266386  0.047192988268578026  0.2672774251687732  1.0000
  C   C10       1.0  0.1798313603232225  0.9528070123874688  0.7327225740834666  1.0000
  C   C11       1.0  0.6116207883341  0.9816737721878184  0.3127771596333127  1.0000
  C   C12       1.0  0.3883792121071101  0.01832622824920804  0.6872228405282523  1.0000
  C   C13       1.0  0.43033330064516784  0.07871205160876621  0.37364356299136825  1.0000
  C   C14       1.0  0.5696667002046932  0.9212879490472806  0.6263564362608716  1.0000
  C   C15       1.0  0.6301241654189544  0.6043433820266407  0.06055936420742126  1.0000
  C   C16       1.0  0.36987583342454006  0.39565661841124455  0.9394406359621981  1.0000
  C   C17       1.0  0.25555009231589515  0.5554832935946368  0.9916164331028264  1.0000
  C   C18       1.0  0.7444499065275995  0.4445167068432487  0.008383567066792639  1.0000
  O   O1        1.0  0.2517148456955752  0.5202022848750326  0.3836957506551636  1.0000
  O   O2        1.0  0.7482851531479194  0.4797977155628528  0.6163042495144557  1.0000
  O   O3        1.0  0.09309886939006262  0.2969598771114412  0.5221236951535381  1.0000
  O   O4        1.0  0.9069011314597983  0.7030401235446057  0.47787630409870174  1.0000
  F   F1        1.0  0.6950947974999584  0.4705247937473818  0.3589138435005792  1.0000
  F   F2        1.0  0.30490520153180717  0.5294752054183857  0.641086156664571  1.0000
  F   F3        1.0  0.0409079789275339  0.28225843175560167  0.24661304992174152  1.0000
  F   F4        1.0  0.9590920221105984  0.7177415676283272  0.7533869493260292  1.0000
  F   F5        1.0  0.5794651262812455  0.8227413124430659  0.2970107172434607  1.0000
  F   F6        1.0  0.42053487256224914  0.17725868799481956  0.7029892829261586  1.0000
  F   F7        1.0  0.23378401222830655  0.007109220974368687  0.41499979878338605  1.0000
  F   F8        1.0  0.766215987023839  0.9928907796825369  0.585000200476908  1.0000
  S   S1        1.0  0.44199283821235175  0.7227328324793109  0.9741106490189723  1.0000
  S   S2        1.0  0.5580071622288584  0.2772671679577156  0.025889351142592887  1.0000
  I   I1        1.0  0.08978513316695085  0.9136677667262747  0.15892401198416573  1.0000
  I   I2        1.0  0.910214867274259  0.08633223371075185  0.8410759881773994  1.0000
