data_image0
_chemical_formula_structural       H40C64O16F32S8Br8
_chemical_formula_sum              "H40 C64 O16 F32 S8 Br8"
_cell_length_a       5.88300054355943
_cell_length_b       20.978150508768813
_cell_length_c       16.13918909931779
_cell_angle_alpha    90.0
_cell_angle_beta     95.28911748608043
_cell_angle_gamma    90.0

_space_group_name_H-M_alt    "P 1"
_space_group_IT_number       1

loop_
  _space_group_symop_operation_xyz
  'x, y, z'

loop_
  _atom_site_type_symbol
  _atom_site_label
  _atom_site_symmetry_multiplicity
  _atom_site_fract_x
  _atom_site_fract_y
  _atom_site_fract_z
  _atom_site_occupancy
  H   H1        1.0  0.38425841563067253  0.48324628978910716  0.0327809626385968  1.0000
  H   H2        1.0  0.6157415835705426  0.9832462895801084  0.4672190368840912  1.0000
  H   H3        1.0  0.6157415839196965  0.5167537102695818  0.9672190370874526  1.0000
  H   H4        1.0  0.3842584159798263  0.016753710478580555  0.5327809628419582  1.0000
  H   H5        1.0  0.1089356567347289  0.47201889727414037  0.0668911075964333  1.0000
  H   H6        1.0  0.8910643426274367  0.9720188975418281  0.4331088925485126  1.0000
  H   H7        1.0  0.8910643429765907  0.5279811027845488  0.9331088927518739  1.0000
  H   H8        1.0  0.10893565692293217  0.027981102516861003  0.5668911071775368  1.0000
  H   H9        1.0  0.28386527718761917  0.47228749149543  0.21792990063691084  1.0000
  H   H10       1.0  0.7161347238740233  0.9722874917631177  0.2820700995067209  1.0000
  H   H11       1.0  0.7161347225237004  0.5277125085632591  0.7820700997113964  1.0000
  H   H12       1.0  0.2838652773758224  0.027712508295571345  0.7179299002180144  1.0000
  H   H13       1.0  0.3135446496376143  0.5462291790313077  0.16528511066953888  1.0000
  H   H14       1.0  0.6864553497245515  0.046229179240306485  0.33471488947540695  1.0000
  H   H15       1.0  0.6864553499127548  0.4537708210273813  0.8347148890565105  1.0000
  H   H16       1.0  0.31354464998676806  0.9537708208183827  0.6652851108729003  1.0000
  H   H17       1.0  0.8774163412641374  0.39824652733365845  0.21975711704210776  1.0000
  H   H18       1.0  0.12258365979750509  0.8982465276013463  0.280242883101524  1.0000
  H   H19       1.0  0.12258365998570835  0.6017534722483442  0.7802428826826274  1.0000
  H   H20       1.0  0.8774163399138144  0.10175347245734284  0.7197571172467832  1.0000
  H   H21       1.0  0.592318947464052  0.3910820053736708  0.24867529177989245  1.0000
  H   H22       1.0  0.4076810518981137  0.8910820051646722  0.25132470836505344  1.0000
  H   H23       1.0  0.407681052086317  0.6089179946850182  0.7513247079461569  1.0000
  H   H24       1.0  0.5923189478132058  0.10891799489401692  0.7486752919832538  1.0000
  H   H25       1.0  0.674916229231769  0.3247478445324504  0.12011713881114794  1.0000
  H   H26       1.0  0.3250837718298736  0.8247478443234517  0.3798828613324839  1.0000
  H   H27       1.0  0.3250837721790274  0.6752521555262386  0.8798828615358453  1.0000
  H   H28       1.0  0.674916227881446  0.17525215525855087  0.6201171390158234  1.0000
  H   H29       1.0  0.7176109426636383  0.3969095262482541  0.06586469008925758  1.0000
  H   H30       1.0  0.2823890583980042  0.8969095260392553  0.43413531005437417  1.0000
  H   H31       1.0  0.2823890585862075  0.6030904738104349  0.9341353096354778  1.0000
  H   H32       1.0  0.7176109413133153  0.10309047354274721  0.5658646902939329  1.0000
  H   H33       1.0  0.08941772681575934  0.2909803672849257  0.15858745412419353  1.0000
  H   H34       1.0  0.9105822742458831  0.790980367075927  0.34141254601943827  1.0000
  H   H35       1.0  0.91058227289556  0.7090196327737633  0.8414125462241138  1.0000
  H   H36       1.0  0.08941772700396261  0.2090196325060756  0.658587453705297  1.0000
  H   H37       1.0  0.9105131453028559  0.5771429480849202  0.10947748767279879  1.0000
  H   H38       1.0  0.08948685575878661  0.07714294829391885  0.39052251247083297  1.0000
  H   H39       1.0  0.08948685440846367  0.42285705197376894  0.8905225126755085  1.0000
  H   H40       1.0  0.9105131454910592  0.9228570517647702  0.6094774872539024  1.0000
  C   C1        1.0  0.2922122752913128  0.464551256123672  0.08357749035159764  1.0000
  C   C2        1.0  0.707787724070853  0.9645512559146733  0.4164225097933482  1.0000
  C   C3        1.0  0.7077877244200068  0.5354487439350171  0.9164225099967097  1.0000
  C   C4        1.0  0.29221227547951606  0.035448744144015776  0.5835774899327012  1.0000
  C   C5        1.0  0.362098880610937  0.4956604051274037  0.16674717104080888  1.0000
  C   C6        1.0  0.6379011187512288  0.995660404918405  0.33325282910413695  1.0000
  C   C7        1.0  0.6379011191003826  0.5043395949312853  0.8332528293074983  1.0000
  C   C8        1.0  0.3620988807991402  0.00433959466359758  0.6667471706219124  1.0000
  C   C9        1.0  0.696818606010606  0.40746644688372335  0.1997538914105986  1.0000
  C   C10       1.0  0.30318139335155964  0.9074664466747246  0.30024610873434726  1.0000
  C   C11       1.0  0.3031813935397629  0.5925335531749658  0.8002461083154507  1.0000
  C   C12       1.0  0.6968186063597598  0.09253355338396445  0.69975389161396  1.0000
  C   C13       1.0  0.6313026916114975  0.3756379084374527  0.11673951381528956  1.0000
  C   C14       1.0  0.36869730945014484  0.875637908228454  0.38326048632834225  1.0000
  C   C15       1.0  0.368697308099822  0.6243620916212365  0.8832604865330176  1.0000
  C   C16       1.0  0.6313026917997009  0.12436209183023508  0.6167395133963931  1.0000
  C   C17       1.0  0.19115586013138847  0.07118711534535771  0.10674106708985497  1.0000
  C   C18       1.0  0.8088441407693034  0.571187115136359  0.39325893243151894  1.0000
  C   C19       1.0  0.8088441394189806  0.9288128847133315  0.8932589326361944  1.0000
  C   C20       1.0  0.19115586048054228  0.42881288492233005  0.6067410672932164  1.0000
  C   C21       1.0  0.9961530487047052  0.08167182894811605  0.14802381979960583  1.0000
  C   C22       1.0  0.0038469506574605274  0.5816718287391174  0.35197618034534  1.0000
  C   C23       1.0  0.003846951006614337  0.918328171110573  0.8519761805487014  1.0000
  C   C24       1.0  0.996153049053859  0.4183281713195717  0.6480238200029673  1.0000
  C   C25       1.0  0.9313502292938906  0.14258395079917593  0.17004138293477497  1.0000
  C   C26       1.0  0.06864977176775194  0.6425839510668637  0.3299586172088568  1.0000
  C   C27       1.0  0.06864977041742897  0.8574160492595131  0.8299586174135323  1.0000
  C   C28       1.0  0.9313502296430443  0.3574160489918254  0.6700413831381364  1.0000
  C   C29       1.0  0.05592898036089226  0.19673389216436776  0.14986469364833624  1.0000
  C   C30       1.0  0.9440710190012735  0.6967338919553691  0.3501353064966096  1.0000
  C   C31       1.0  0.9440710193504273  0.8032661078943213  0.8501353066999711  1.0000
  C   C32       1.0  0.055928980549095585  0.30326610810332  0.6498646932294398  1.0000
  C   C33       1.0  0.25281700591720235  0.18544528023925966  0.10898132292693559  1.0000
  C   C34       1.0  0.7471829951444401  0.6854452805069474  0.3910186772166962  1.0000
  C   C35       1.0  0.7471829937941172  0.8145547193427429  0.8910186774213716  1.0000
  C   C36       1.0  0.25281700626635617  0.31455471955174164  0.6089813231302971  1.0000
  C   C37       1.0  0.3197234475946581  0.1243294974411485  0.08836053854625438  1.0000
  C   C38       1.0  0.6802765534669843  0.6243294972321498  0.4116394615973774  1.0000
  C   C39       1.0  0.6802765538161382  0.8756705026175405  0.9116394618007388  1.0000
  C   C40       1.0  0.31972344608338465  0.37567050282653924  0.5883605381286721  1.0000
  C   C41       1.0  0.8482204073617822  0.8014229334932301  0.12320534937005828  1.0000
  C   C42       1.0  0.1517795918394331  0.30142293370222883  0.37679465015262975  1.0000
  C   C43       1.0  0.15177959218858686  0.1985770665654589  0.876794650355991  1.0000
  C   C44       1.0  0.8482204077109359  0.6985770663564602  0.6232053495734197  1.0000
  C   C45       1.0  0.041692077083824455  0.7837205869567816  0.08452607058497937  1.0000
  C   C46       1.0  0.958307923977818  0.28372058668909383  0.4154739295586524  1.0000
  C   C47       1.0  0.9583079241660214  0.21627941310190746  0.9154739291397559  1.0000
  C   C48       1.0  0.041692075733501484  0.7162794133695952  0.5845260707896548  1.0000
  C   C49       1.0  0.09756537413756464  0.719940721356107  0.07513502254989927  1.0000
  C   C50       1.0  0.9024346269240777  0.21994072108841917  0.4248649775937325  1.0000
  C   C51       1.0  0.9024346254128043  0.2800592787025821  0.92486497717615  1.0000
  C   C52       1.0  0.09756537448671838  0.7800592789702699  0.5751350227532606  1.0000
  C   C53       1.0  0.9631770959577713  0.6707520352720466  0.10377414023624176  1.0000
  C   C54       1.0  0.03682290510387109  0.17075203548104526  0.39622585990739  1.0000
  C   C55       1.0  0.03682290375354814  0.3292479647866425  0.8962258601120655  1.0000
  C   C56       1.0  0.9631770961459748  0.8292479645776438  0.6037741398173454  1.0000
  C   C57       1.0  0.7698720107393878  0.6893009940964838  0.14264798764559053  1.0000
  C   C58       1.0  0.23012799032225464  0.1893009943054825  0.35735201249804127  1.0000
  C   C59       1.0  0.23012798897193162  0.31069900596220523  0.8573520127027167  1.0000
  C   C60       1.0  0.7698720109275912  0.8106990057532065  0.642647987226694  1.0000
  C   C61       1.0  0.713757170452073  0.7531251953500852  0.1525690621164419  1.0000
  C   C62       1.0  0.2862428287491422  0.25312519555908386  0.3474309374062461  1.0000
  C   C63       1.0  0.286242829098296  0.2468748047086039  0.8474309376096074  1.0000
  C   C64       1.0  0.7137571708012268  0.7468748044996053  0.6525690623198033  1.0000
  O   O1        1.0  0.2048208435201971  0.3568353447970057  0.15704641774204858  1.0000
  O   O2        1.0  0.7951791558419687  0.8568353445880071  0.34295358240289725  1.0000
  O   O3        1.0  0.7951791560301719  0.6431646552616833  0.8429535819840007  1.0000
  O   O4        1.0  0.2048208438693509  0.14316465547068205  0.65704641794541  1.0000
  O   O5        1.0  0.776026976830712  0.5129044152630347  0.11604049145638795  1.0000
  O   O6        1.0  0.22397302406997993  0.012904415472033323  0.38395950806498597  1.0000
  O   O7        1.0  0.22397302441913375  0.48709558479565446  0.8839595082683473  1.0000
  O   O8        1.0  0.7760269754803891  0.9870955845866558  0.6160404916610634  1.0000
  O   O9        1.0  0.9815440711862236  0.25438213429584133  0.17025760009289762  1.0000
  O   O10       1.0  0.018455928175942125  0.7543821345635291  0.32974240005204825  1.0000
  O   O11       1.0  0.018455928525095887  0.7456178652861613  0.8297424002554096  1.0000
  O   O12       1.0  0.9815440713744268  0.24561786549516  0.6702575996740011  1.0000
  O   O13       1.0  0.025586346806429402  0.6100218527200876  0.0925778219494276  1.0000
  O   O14       1.0  0.9744136525557363  0.11002185292908634  0.40742217819551824  1.0000
  O   O15       1.0  0.9744136529048902  0.38997814733860137  0.9074221783988796  1.0000
  O   O16       1.0  0.025586346994632674  0.8899781471296028  0.5925778215305311  1.0000
  F   F1        1.0  0.86532186998803  0.031774668111060306  0.16823155465147027  1.0000
  F   F2        1.0  0.13467812937413587  0.531774668378748  0.33176844549347556  1.0000
  F   F3        1.0  0.13467812956233916  0.9682253319476287  0.8317684450745791  1.0000
  F   F4        1.0  0.8653218703371836  0.46822533167994096  0.6682315548548318  1.0000
  F   F5        1.0  0.7432290717267762  0.15022586756076028  0.21162039438616848  1.0000
  F   F6        1.0  0.2567709274744391  0.6502258673517616  0.28837960513651956  1.0000
  F   F7        1.0  0.25677092782359284  0.8497741324979287  0.7883796053398809  1.0000
  F   F8        1.0  0.7432290720759299  0.3497741327069274  0.7116203945895299  1.0000
  F   F9        1.0  0.3825585061894208  0.23573487366929155  0.08882410856973932  1.0000
  F   F10       1.0  0.617441493172745  0.7357348734602929  0.4111758915752065  1.0000
  F   F11       1.0  0.6174414933609483  0.7642651263893975  0.91117589115631  1.0000
  F   F12       1.0  0.3825585065385745  0.26426512612170977  0.5888241087731008  1.0000
  F   F13       1.0  0.5134927276769942  0.11734097479046396  0.05046724844741773  1.0000
  F   F14       1.0  0.48650727168517155  0.6173409750581518  0.44953275169752815  1.0000
  F   F15       1.0  0.4865072720343253  0.8826590247915386  0.9495327519008895  1.0000
  F   F16       1.0  0.5134927278651975  0.38265902500053733  0.5504672480285212  1.0000
  F   F17       1.0  0.1783745791728629  0.8286417252433096  0.055306015432721296  1.0000
  F   F18       1.0  0.8216254200283521  0.3286417249756218  0.4446939840899667  1.0000
  F   F19       1.0  0.8216254203775061  0.17135827481537952  0.944693984293328  1.0000
  F   F20       1.0  0.17837457952201666  0.6713582746063808  0.5553060156360826  1.0000
  F   F21       1.0  0.28668831772389575  0.7046253249933198  0.03733045142948704  1.0000
  F   F22       1.0  0.7133116816382701  0.20462532472563197  0.4626695487154588  1.0000
  F   F23       1.0  0.7133116818264732  0.29537467506536935  0.9626695482965623  1.0000
  F   F24       1.0  0.2866883180730495  0.7953746753330572  0.5373304516328484  1.0000
  F   F25       1.0  0.6337609833492842  0.6434344064009764  0.17133922073926486  1.0000
  F   F26       1.0  0.3662390177123583  0.14343440660997503  0.32866077940436694  1.0000
  F   F27       1.0  0.3662390162010848  0.35656559365771273  0.8286607789867845  1.0000
  F   F28       1.0  0.633760983698438  0.856565593448714  0.6713392209426262  1.0000
  F   F29       1.0  0.5267176702793355  0.7675201349742323  0.19163737905846567  1.0000
  F   F30       1.0  0.47328233062135644  0.26752013518323103  0.30836262046290824  1.0000
  F   F31       1.0  0.4732823309705103  0.2324798650844567  0.8083626206662696  1.0000
  F   F32       1.0  0.5267176706284893  0.732479864875458  0.6916373792618271  1.0000
  S   S1        1.0  0.32820059133035745  0.3788233584594681  0.08309192494847695  1.0000
  S   S2        1.0  0.671799409731285  0.8788233587271558  0.4169080751951549  1.0000
  S   S3        1.0  0.6717994100804389  0.6211766411225346  0.9169080753985163  1.0000
  S   S4        1.0  0.3282005899800345  0.12117664133153323  0.5830919251531524  1.0000
  S   S5        1.0  0.6677426751142567  0.49363956301445006  0.19506438851349905  1.0000
  S   S6        1.0  0.33225732424790905  0.9936395628054513  0.3049356116314468  1.0000
  S   S7        1.0  0.3322573244361124  0.5063604370442389  0.8049356112125504  1.0000
  S   S8        1.0  0.6677426754634105  0.006360437253237673  0.6950643887168605  1.0000
  Br  Br1       1.0  0.28011734737290195  0.9888045054939119  0.0778291144616623  1.0000
  Br  Br2       1.0  0.7198826536887405  0.48880450570291056  0.4221708856819695  1.0000
  Br  Br3       1.0  0.719882652177467  0.011195494088090788  0.9221708852643871  1.0000
  Br  Br4       1.0  0.28011734772205577  0.5111954943557785  0.5778291146650236  1.0000
  Br  Br5       1.0  0.7722291867657156  0.8878457889895799  0.13326032597535267  1.0000
  Br  Br6       1.0  0.22777081429592683  0.3878457891985785  0.36673967416827913  1.0000
  Br  Br7       1.0  0.22777081294560383  0.11215421106910929  0.8667396743729546  1.0000
  Br  Br8       1.0  0.772229186953919  0.6121542108601106  0.6332603255564562  1.0000
