data_image0
_chemical_formula_structural       H24C38N2O8
_chemical_formula_sum              "H24 C38 N2 O8"
_cell_length_a       8.671794601207617
_cell_length_b       9.14904017397511
_cell_length_c       9.452893277757886
_cell_angle_alpha    89.47664243993972
_cell_angle_beta     71.88286090156073
_cell_angle_gamma    74.05923765831471

_space_group_name_H-M_alt    "P 1"
_space_group_IT_number       1

loop_
  _space_group_symop_operation_xyz
  'x, y, z'

loop_
  _atom_site_type_symbol
  _atom_site_label
  _atom_site_symmetry_multiplicity
  _atom_site_fract_x
  _atom_site_fract_y
  _atom_site_fract_z
  _atom_site_occupancy
  H   H1        1.0  0.14229253673692985  0.4237110125389026  0.5784223421741418  1.0000
  H   H2        1.0  0.8577074627275313  0.5762889870115518  0.4215776587250997  1.0000
  H   H3        1.0  0.32268371286389674  0.22318380073704014  0.686353110835755  1.0000
  H   H4        1.0  0.6773162878161466  0.7768161988252654  0.31364688866407947  1.0000
  H   H5        1.0  0.4849288565452623  0.153883237101274  0.8592253701139564  1.0000
  H   H6        1.0  0.5150711429191988  0.8461167624491804  0.14077463078528513  1.0000
  H   H7        1.0  0.5468911429786254  0.21751174665451012  0.09136838066485936  1.0000
  H   H8        1.0  0.45310885770141807  0.7824882529077953  0.908631618834975  1.0000
  H   H9        1.0  0.47789048192078226  0.3921775998574353  0.31478576468616654  1.0000
  H   H10       1.0  0.5221095175491289  0.6078223996950289  0.6852142351536401  1.0000
  H   H11       1.0  0.3466318619939925  0.6525316373406156  0.4476226646602817  1.0000
  H   H12       1.0  0.6533681374759189  0.3474683622118486  0.5523773351795249  1.0000
  H   H13       1.0  0.14910467243294426  0.8487501256628031  0.3512273532871614  1.0000
  H   H14       1.0  0.8508953270369671  0.15124987388966105  0.6487726465526454  1.0000
  H   H15       1.0  0.9803625136546358  0.917444698036323  0.17855447074242795  1.0000
  H   H16       1.0  0.019637485815275517  0.08255530151614124  0.8214455290973788  1.0000
  H   H17       1.0  0.9296635512762951  0.8595945160874212  0.9429348027139182  1.0000
  H   H18       1.0  0.07033644940374854  0.14040548347488438  0.05706519678591626  1.0000
  H   H19       1.0  0.20835191705483364  0.9997070850505535  0.5156554810658973  1.0000
  H   H20       1.0  0.7916480824096276  0.0002929144999008191  0.4843445198333439  1.0000
  H   H21       1.0  0.37030126376653144  0.12448992414159138  0.31308549798406066  1.0000
  H   H22       1.0  0.6296987365354716  0.8755100765593617  0.6869145026732295  1.0000
  H   H23       1.0  0.3353130002353321  0.8752565755443282  0.7037990261659332  1.0000
  H   H24       1.0  0.6646870004447113  0.12474342401797742  0.2962009733339013  1.0000
  C   C1        1.0  0.09844017226080275  0.595562500488417  0.7519075850934336  1.0000
  C   C2        1.0  0.9015598284137905  0.4044374990718787  0.24809241546583558  1.0000
  C   C3        1.0  0.16542925139051715  0.44849281539642033  0.6808903742511095  1.0000
  C   C4        1.0  0.8345707480793942  0.5515071841560439  0.3191096255886971  1.0000
  C   C5        1.0  0.26416700076674593  0.3376034352003462  0.7426390843060764  1.0000
  C   C6        1.0  0.7358329995407075  0.6623965655026168  0.25736091529177924  1.0000
  C   C7        1.0  0.28982797461503185  0.3708224713134311  0.875999074926127  1.0000
  C   C8        1.0  0.7101720260595613  0.6291775282468646  0.12400092563314222  1.0000
  C   C9        1.0  0.3948489268214355  0.24858426884794196  0.9379825223058306  1.0000
  C   C10       1.0  0.6051510734805677  0.751415731853011  0.06201747835145971  1.0000
  C   C11       1.0  0.4299790076521929  0.2855155349931431  0.0743464868957562  1.0000
  C   C12       1.0  0.5700209918177184  0.7144844645593212  0.9256535129440505  1.0000
  C   C13       1.0  0.3564342686854471  0.4425219248793975  0.14646352330650156  1.0000
  C   C14       1.0  0.6435657319945962  0.5574780746829081  0.8535364761933328  1.0000
  C   C15       1.0  0.39230725039793307  0.47945182136814257  0.2736748042862463  1.0000
  C   C16       1.0  0.6076927490665281  0.5205481781823118  0.7263251966129952  1.0000
  C   C17       1.0  0.317919299005486  0.6243566937845934  0.34871242882854714  1.0000
  C   C18       1.0  0.6820807016745573  0.37564330577771227  0.6512875706712873  1.0000
  C   C19       1.0  0.20854668233031431  0.7344033732658953  0.2945893416248874  1.0000
  C   C20       1.0  0.7914533183497292  0.2655966262964102  0.7054106578749471  1.0000
  C   C21       1.0  0.17736399820386936  0.7013848679005582  0.1638869865349555  1.0000
  C   C22       1.0  0.8226360008934519  0.29861513279256346  0.8361130134028724  1.0000
  C   C23       1.0  0.07359876451848055  0.8231772060182411  0.10148270162988207  1.0000
  C   C24       1.0  0.9264012349514308  0.17682279353422323  0.8985172982099244  1.0000
  C   C25       1.0  0.04444036848793216  0.7904185949754009  0.9613896722988614  1.0000
  C   C26       1.0  0.9555596309765291  0.2095814045750535  0.038610328600380085  1.0000
  C   C27       1.0  0.12086257904461016  0.6344662499798304  0.8860072087445384  1.0000
  C   C28       1.0  0.8791374200527113  0.36553375071329125  0.11399279119328952  1.0000
  C   C29       1.0  0.21767503562209348  0.5192124867347803  0.9502164810787636  1.0000
  C   C30       1.0  0.7823249646853598  0.4807875139681829  0.04978351851909207  1.0000
  C   C31       1.0  0.24905907094042432  0.554191266188237  0.08838792389044856  1.0000
  C   C32       1.0  0.7509409281568972  0.44580873450488445  0.9116120760473793  1.0000
  C   C33       1.0  0.3365944748464876  0.998704555988046  0.508187071134981  1.0000
  C   C34       1.0  0.6634055258335559  0.0012954435742595601  0.4918129283648536  1.0000
  C   C35       1.0  0.4279913499659222  0.07009322907952781  0.39439422393285395  1.0000
  C   C36       1.0  0.5720086507086709  0.9299067704807679  0.6056057766264153  1.0000
  C   C37       1.0  0.40857756307412885  0.9283378585772932  0.6138019301482457  1.0000
  C   C38       1.0  0.5914224376059147  0.07166214098501215  0.3861980693515888  1.0000
  N   N1        1.0  0.009513104277948329  0.7115905048112071  0.6739363317895322  1.0000
  N   N2        1.0  0.9904868951919628  0.2884094947412572  0.3260636680502746  1.0000
  O   O1        1.0  0.3075377559528768  0.20079852681569912  0.08082090813305205  1.0000
  O   O2        1.0  0.6924622443545767  0.7992014738872638  0.9191790914648036  1.0000
  O   O3        1.0  0.16531933761292222  0.874213439602209  0.9608978399299034  1.0000
  O   O4        1.0  0.8346806618569891  0.12578655995025526  0.03910215990990326  1.0000
  O   O5        1.0  0.02646829542056398  0.8422408528289936  0.6775315920982133  1.0000
  O   O6        1.0  0.9735317052594795  0.15775914673331198  0.3224684074016212  1.0000
  O   O7        1.0  0.9278759815103456  0.6712284903511677  0.6029957648290777  1.0000
  O   O8        1.0  0.07212401879710796  0.32877151035179525  0.39700423476877783  1.0000
