data_image0
_chemical_formula_structural       H32C48N4O4Cl12
_chemical_formula_sum              "H32 C48 N4 O4 Cl12"
_cell_length_a       14.099053115991145
_cell_length_b       3.830834119046116
_cell_length_c       21.699879098580038
_cell_angle_alpha    90.0
_cell_angle_beta     90.52336532618864
_cell_angle_gamma    90.0

_space_group_name_H-M_alt    "P 1"
_space_group_IT_number       1

loop_
  _space_group_symop_operation_xyz
  'x, y, z'

loop_
  _atom_site_type_symbol
  _atom_site_label
  _atom_site_symmetry_multiplicity
  _atom_site_fract_x
  _atom_site_fract_y
  _atom_site_fract_z
  _atom_site_occupancy
  H   H1        1.0  0.7975568493588335  0.672372786175708  0.24086263462086652  1.0000
  H   H2        1.0  0.2024431509251204  0.17237278605120696  0.25913736548401817  1.0000
  H   H3        1.0  0.20244315029174695  0.3276272140732939  0.7591373654325425  1.0000
  H   H4        1.0  0.7975568494347297  0.8276272141977948  0.7408626345695555  1.0000
  H   H5        1.0  0.5931018838474877  0.5510593318317962  0.02960461946806169  1.0000
  H   H6        1.0  0.4068981164302403  0.051059331707295305  0.4703953801759717  1.0000
  H   H7        1.0  0.4068981165061366  0.4489406684172056  0.9703953801246606  1.0000
  H   H8        1.0  0.5931018839296097  0.9489406685417064  0.5296046198776019  1.0000
  H   H9        1.0  0.4887096062887081  0.07380254305305162  0.1916059931953949  1.0000
  H   H10       1.0  0.5112903939952458  0.5738025431775524  0.30839400690948976  1.0000
  H   H11       1.0  0.5112903933618722  0.9261974571959501  0.8083940068580141  1.0000
  H   H12       1.0  0.48870960636460437  0.42619745707144924  0.6916059931440838  1.0000
  H   H13       1.0  0.07658109578128348  0.31015017436877357  0.462267007406518  1.0000
  H   H14       1.0  0.9234189045026704  0.8101501744932744  0.03773299269836664  1.0000
  H   H15       1.0  0.9234189045785666  0.6898498258802281  0.5377329926470555  1.0000
  H   H16       1.0  0.07658109585717976  0.18984982575572726  0.9622670073552069  1.0000
  H   H17       1.0  0.056788951420701644  0.30834004900586004  0.3529695903132302  1.0000
  H   H18       1.0  0.9432110481539824  0.808340049130361  0.14703040979148985  1.0000
  H   H19       1.0  0.9432110482298787  0.6916599486327442  0.6470304097401788  1.0000
  H   H20       1.0  0.05678895149659793  0.19165995111864081  0.8529695902619193  1.0000
  H   H21       1.0  0.8276291481620469  0.7276721709615855  0.4626120471158268  1.0000
  H   H22       1.0  0.17237085212190692  0.22767217083708466  0.03738795298905787  1.0000
  H   H23       1.0  0.17237085219780318  0.27232782667701866  0.5373879529377467  1.0000
  H   H24       1.0  0.8276291482379432  0.7723278268015196  0.9626120470645156  1.0000
  H   H25       1.0  0.7382020070785158  0.8214032433185919  0.3658603590470318  1.0000
  H   H26       1.0  0.2617979924899427  0.32140324319409097  0.1341396405968371  1.0000
  H   H27       1.0  0.2617979925658389  0.1785967569304099  0.6341396405455261  1.0000
  H   H28       1.0  0.7382020071606378  0.6785967570549107  0.8658603594565719  1.0000
  H   H29       1.0  0.9539106973128613  0.41329970987995696  0.26039074902204146  1.0000
  H   H30       1.0  0.04608930296486691  0.9132997100044579  0.23960925062199195  1.0000
  H   H31       1.0  0.04608930304698887  0.5867002903690448  0.7396092510315322  1.0000
  H   H32       1.0  0.9539106973887574  0.08670029024454393  0.7603907489707303  1.0000
  C   C1        1.0  0.7081918140227937  0.7091184075275013  0.16744660923351193  1.0000
  C   C2        1.0  0.29180818625493443  0.20911840740300044  0.3325533904105215  1.0000
  C   C3        1.0  0.2918081863308308  0.2908815927215004  0.8325533903592103  1.0000
  C   C4        1.0  0.7081918141049157  0.7908815928460012  0.667446609643052  1.0000
  C   C5        1.0  0.6034865897832836  0.6447433178377899  0.07649024586597596  1.0000
  C   C6        1.0  0.3965134104944446  0.14474331771328913  0.42350975377805744  1.0000
  C   C7        1.0  0.39651341057034084  0.3552566824112117  0.9235097537267463  1.0000
  C   C8        1.0  0.6034865891561357  0.8552566825357126  0.5764902462753515  1.0000
  C   C9        1.0  0.690271303162047  0.5966630344644491  0.10638203140228902  1.0000
  C   C10       1.0  0.3097286971219069  0.09666303695034578  0.39361796870259563  1.0000
  C   C11       1.0  0.30972869719780316  0.4033369631741551  0.8936179686512846  1.0000
  C   C12       1.0  0.6902713025286734  0.903336963298656  0.6063820313508134  1.0000
  C   C13       1.0  0.5306629011063985  0.8115214711448007  0.10794349825032142  1.0000
  C   C14       1.0  0.4693370991775554  0.3115214710202997  0.39205650185456326  1.0000
  C   C15       1.0  0.4693370992534517  0.18847852910420113  0.8920565018032521  1.0000
  C   C16       1.0  0.5306629011822946  0.688478529228702  0.6079434981990103  1.0000
  C   C17       1.0  0.6321288956371658  0.8828434212761294  0.19630942121545733  1.0000
  C   C18       1.0  0.36787110464678807  0.38284342115162856  0.3036905788894273  1.0000
  C   C19       1.0  0.36787110472268436  0.11715657897287232  0.8036905788381163  1.0000
  C   C20       1.0  0.632128895713062  0.6171565790973732  0.6963094211641463  1.0000
  C   C21       1.0  0.5444347627987296  0.9340956796351755  0.16768473078497725  1.0000
  C   C22       1.0  0.4555652374852242  0.43409567951067457  0.3323152693199074  1.0000
  C   C23       1.0  0.4555652375611205  0.06590432061382628  0.8323152692685963  1.0000
  C   C24       1.0  0.5444347621653561  0.5659043207383272  0.6676847307335017  1.0000
  C   C25       1.0  0.9515432258944833  0.5110207279054554  0.41663794476917926  1.0000
  C   C26       1.0  0.0484567743894706  0.01102072778095453  0.08336205533570543  1.0000
  C   C27       1.0  0.04845677375609713  0.4889792723435464  0.5833620552842298  1.0000
  C   C28       1.0  0.9515432259703794  0.9889792724680472  0.9166379447178681  1.0000
  C   C29       1.0  0.010471568949158096  0.4494794988483478  0.4710074437310947  1.0000
  C   C30       1.0  0.989528430625526  0.9494794989728487  0.02899255637362531  1.0000
  C   C31       1.0  0.9895284307014222  0.5505205014006539  0.5289925563223142  1.0000
  C   C32       1.0  0.010471569025054377  0.05052050127615307  0.9710074436797836  1.0000
  C   C33       1.0  0.986276287782688  0.4218981453580773  0.35811147651338576  1.0000
  C   C34       1.0  0.013723712501265741  0.9218981454825782  0.14188852359149895  1.0000
  C   C35       1.0  0.013723712577162022  0.578101852280527  0.6418885235401879  1.0000
  C   C36       1.0  0.9862762878585843  0.0781018547664236  0.8581114764620746  1.0000
  C   C37       1.0  0.859940486210325  0.6557794652370742  0.419047045804891  1.0000
  C   C38       1.0  0.14005951407362874  0.15577946511257335  0.08095295429999368  1.0000
  C   C39       1.0  0.14005951344025525  0.3442205350119275  0.580952954248518  1.0000
  C   C40       1.0  0.8599404862862214  0.8442205351364284  0.91904704575358  1.0000
  C   C41       1.0  0.8091584245296068  0.7089383292524933  0.36485967652442086  1.0000
  C   C42       1.0  0.1908415750450772  0.20893832912799234  0.1351403235802992  1.0000
  C   C43       1.0  0.19084157512097347  0.29106167099650854  0.6351403235289881  1.0000
  C   C44       1.0  0.8091584246055031  0.7910616711210093  0.8648596764731099  1.0000
  C   C45       1.0  0.9297690939819904  0.4825326972028432  0.3064018471860838  1.0000
  C   C46       1.0  0.07023090559269368  0.9825326973273442  0.19359815291863627  1.0000
  C   C47       1.0  0.07023090566858996  0.5174673030461585  0.6935981528673252  1.0000
  C   C48       1.0  0.9297690940578868  0.017467302921657643  0.8064018471347727  1.0000
  N   N1        1.0  0.8429160149193429  0.6259527469691343  0.30894621237066183  1.0000
  N   N2        1.0  0.15708398536461096  0.1259527468446335  0.19105378773422285  1.0000
  N   N3        1.0  0.15708398544050722  0.3740472532798674  0.6910537876829117  1.0000
  N   N4        1.0  0.8429160142859695  0.8740472534043683  0.8089462123191861  1.0000
  O   O1        1.0  0.7932970822396239  0.6539245532833899  0.19299248308862113  1.0000
  O   O2        1.0  0.20670291803810437  0.15392455315888912  0.3070075165554123  1.0000
  O   O3        1.0  0.20670291812022631  0.34607544696561177  0.8070075169649525  1.0000
  O   O4        1.0  0.7932970823155201  0.8460754470901126  0.6929924830373101  1.0000
  Cl  Cl1       1.0  0.6482756219972833  0.04717373146008168  0.2698214667621486  1.0000
  Cl  Cl2       1.0  0.35172437828667064  0.5471737315845826  0.23017853334273605  1.0000
  Cl  Cl3       1.0  0.35172437836256687  0.9528262687889201  0.730178533291425  1.0000
  Cl  Cl4       1.0  0.6482756220731796  0.4528262686644192  0.7698214667108376  1.0000
  Cl  Cl5       1.0  0.7810827058123657  0.3917233253560085  0.06710130581595818  1.0000
  Cl  Cl6       1.0  0.21891729446536237  0.8917233254805094  0.4328986938280752  1.0000
  Cl  Cl7       1.0  0.21891729383821457  0.6082766748929932  0.9328986942374508  1.0000
  Cl  Cl8       1.0  0.781082705888262  0.1082766747684923  0.567101305764647  1.0000
  Cl  Cl9       1.0  0.42114566117290536  0.8714504821292713  0.072089212532682  1.0000
  Cl  Cl10      1.0  0.5788543391110486  0.3714504820047705  0.42791078757220263  1.0000
  Cl  Cl11      1.0  0.5788543391869447  0.1285495181197304  0.9279107875208915  1.0000
  Cl  Cl12      1.0  0.4211456605395319  0.6285495182442313  0.5720892124812063  1.0000
