data_image0
_chemical_formula_structural       H32C48N4O4Br12
_chemical_formula_sum              "H32 C48 N4 O4 Br12"
_cell_length_a       3.9104995198518893
_cell_length_b       25.831934366676165
_cell_length_c       12.291449670492092
_cell_angle_alpha    90.0
_cell_angle_beta     92.70678993407574
_cell_angle_gamma    90.0

_space_group_name_H-M_alt    "P 1"
_space_group_IT_number       1

loop_
  _space_group_symop_operation_xyz
  'x, y, z'

loop_
  _atom_site_type_symbol
  _atom_site_label
  _atom_site_symmetry_multiplicity
  _atom_site_fract_x
  _atom_site_fract_y
  _atom_site_fract_z
  _atom_site_occupancy
  H   H1        1.0  0.6170681685902882  0.2581170796330859  0.5299577188861991  1.0000
  H   H2        1.0  0.8829318329282343  0.7581170795038628  0.9700422812205436  1.0000
  H   H3        1.0  0.3829318315252556  0.7418829204955856  0.4700422809148461  1.0000
  H   H4        1.0  0.11706816718730959  0.24188292062480873  0.029957718580501665  1.0000
  H   H5        1.0  0.25134378570431953  0.1262147187167663  0.7749055848424194  1.0000
  H   H6        1.0  0.24865621445472122  0.626214718974661  0.7250944159231193  1.0000
  H   H7        1.0  0.7486562145450644  0.8737852810247876  0.22509441577309777  1.0000
  H   H8        1.0  0.7513437857946627  0.37378528115401066  0.274905584692398  1.0000
  H   H9        1.0  0.6300877899555243  0.04806958404175348  0.4940660835885132  1.0000
  H   H10       1.0  0.8699122102503628  0.5480695842996481  0.005933916062510462  1.0000
  H   H11       1.0  0.36991221016001957  0.9519304156998004  0.505933916212532  1.0000
  H   H12       1.0  0.13008778986518102  0.45193041582902344  0.9940660837385348  1.0000
  H   H13       1.0  0.7189976230550049  0.5012791146877696  0.6075003461277066  1.0000
  H   H14       1.0  0.7810023784635175  0.001279114816992761  0.8924996539790361  1.0000
  H   H15       1.0  0.2810023770605389  0.49872088505378415  0.3924996536733386  1.0000
  H   H16       1.0  0.2189976217858664  0.9987208853116788  0.10750034663648118  1.0000
  H   H17       1.0  0.8618805940311377  0.4209344498036179  0.6888261622429097  1.0000
  H   H18       1.0  0.6381194074873848  0.9209344500615125  0.811173837863833  1.0000
  H   H19       1.0  0.13811940608440618  0.5790655499379359  0.3111738375581356  1.0000
  H   H20       1.0  0.361880592628159  0.07906555006715903  0.1888261619372122  1.0000
  H   H21       1.0  0.28017451332572774  0.4173512884078765  0.38030667327786927  1.0000
  H   H22       1.0  0.21982548538683744  0.9173512882786534  0.1196933262174785  1.0000
  H   H23       1.0  0.7198254867898162  0.5826487117207951  0.619693326523176  1.0000
  H   H24       1.0  0.7801745147287065  0.08264871146290043  0.8803066735835667  1.0000
  H   H25       1.0  0.8597184939213044  0.3244193265220934  0.685056017870527  1.0000
  H   H26       1.0  0.6402815050406448  0.8244193263928703  0.814943982240338  1.0000
  H   H27       1.0  0.14028150619423954  0.6755806736065783  0.31494398193051826  1.0000
  H   H28       1.0  0.35971849520873916  0.17558067334868352  0.1850560183751792  1.0000
  H   H29       1.0  0.30073535797141127  0.32128597154948185  0.39101565978639724  1.0000
  H   H30       1.0  0.19926464087499407  0.8212859714202588  0.1089843405234225  1.0000
  H   H31       1.0  0.6992646395875591  0.6787140285791897  0.6089843400187703  1.0000
  H   H32       1.0  0.8007353592405498  0.17871402870841285  0.8910156592776228  1.0000
  C   C1        1.0  0.5971383481170925  0.17905434042782242  0.5480046972677501  1.0000
  C   C2        1.0  0.9028616508448566  0.6790543402985993  0.9519953028431151  1.0000
  C   C3        1.0  0.40286165199845136  0.8209456597008491  0.4519953025332952  1.0000
  C   C4        1.0  0.09713834940452735  0.3209456598300722  0.04800469777240229  1.0000
  C   C5        1.0  0.36928969539344497  0.1273403405764095  0.6965551280493661  1.0000
  C   C6        1.0  0.1307103046317557  0.6273403404471865  0.8034448719017007  1.0000
  C   C7        1.0  0.6307103047220989  0.872659659552262  0.3034448717516791  1.0000
  C   C8        1.0  0.8692896954837882  0.3726596592943674  0.19655512789934468  1.0000
  C   C9        1.0  0.6579943022023907  0.13129341581074935  0.4955011804737487  1.0000
  C   C10       1.0  0.8420056980034962  0.6312934156815262  0.004498819177275055  1.0000
  C   C11       1.0  0.3420056979131531  0.8687065843179221  0.5044988193272966  1.0000
  C   C12       1.0  0.1579943021120476  0.3687065840600276  0.9955011806237702  1.0000
  C   C13       1.0  0.580272363522131  0.08331854012359576  0.539049310902693  1.0000
  C   C14       1.0  0.9197276354398182  0.5833185399943727  0.960950689208172  1.0000
  C   C15       1.0  0.41972763659341294  0.9166814600050759  0.4609506888983523  1.0000
  C   C16       1.0  0.0802723648095658  0.4166814601342989  0.039049311407345244  1.0000
  C   C17       1.0  0.43324839577659374  0.08203924955514993  0.6399650396212874  1.0000
  C   C18       1.0  0.06675160424860692  0.5820392498130446  0.8600349603297794  1.0000
  C   C19       1.0  0.5667516043389501  0.9179607501864038  0.3600349601797579  1.0000
  C   C20       1.0  0.933248395866937  0.41796075031562696  0.13996503947126585  1.0000
  C   C21       1.0  0.45232319880311267  0.17496891002598067  0.6510107228650469  1.0000
  C   C22       1.0  0.04767680122208801  0.6749689102838753  0.8489892770860198  1.0000
  C   C23       1.0  0.5476767987558578  0.825031089715573  0.3489892769401206  1.0000
  C   C24       1.0  0.9523231988934558  0.3250310898447962  0.15101072271502544  1.0000
  C   C25       1.0  0.5714994427081497  0.4280872540565723  0.5347333632112904  1.0000
  C   C26       1.0  0.9285005562537995  0.9280872539273493  0.9652666368995746  1.0000
  C   C27       1.0  0.42850055754123445  0.5719127460720993  0.4652666374042269  1.0000
  C   C28       1.0  0.0714994438617443  0.07191274581420462  0.034733362901470596  1.0000
  C   C29       1.0  0.5770146300654918  0.4843078769253531  0.5376184516454681  1.0000
  C   C30       1.0  0.9229853714530307  0.9843078767961301  0.9623815484612748  1.0000
  C   C31       1.0  0.4229853700500521  0.5156921232033184  0.46238154815557725  1.0000
  C   C32       1.0  0.07701462866251307  0.01569212333254151  0.03761845133977052  1.0000
  C   C33       1.0  0.7340247896112652  0.40041975460202167  0.6210012368656955  1.0000
  C   C34       1.0  0.765975209350684  0.9004197544727985  0.8789987632451693  1.0000
  C   C35       1.0  0.2659752105042788  0.5995802455266499  0.3789987629353498  1.0000
  C   C36       1.0  0.2340247907648598  0.09958024526875524  0.12100123655587582  1.0000
  C   C37       1.0  0.41170252965504917  0.39880928906701835  0.449996630836917  1.0000
  C   C38       1.0  0.08829746919135614  0.8988092889377952  0.05000336947290275  1.0000
  C   C39       1.0  0.5882974705943349  0.6011907110616532  0.5500033697786003  1.0000
  C   C40       1.0  0.9117025309241877  0.10119071080375858  0.9499966303281425  1.0000
  C   C41       1.0  0.7328004649774454  0.34663731770514583  0.6194031218063798  1.0000
  C   C42       1.0  0.7671995339845037  0.8466373175759228  0.8805968783044853  1.0000
  C   C43       1.0  0.26719953527193846  0.6533626824235258  0.38059687880913745  1.0000
  C   C44       1.0  0.2328004661310402  0.15336268216563112  0.11940312149656006  1.0000
  C   C45       1.0  0.4218178389316038  0.3451474021822243  0.45519628109944127  1.0000
  C   C46       1.0  0.07818216233753483  0.8451474020530012  0.044803718391784264  1.0000
  C   C47       1.0  0.5781821611839402  0.6548525979464473  0.544803718701604  1.0000
  C   C48       1.0  0.9218178377780091  0.15485259807567034  0.9551962814092609  1.0000
  N   N1        1.0  0.5796750906165922  0.31924285122984813  0.5382258278364459  1.0000
  N   N2        1.0  0.920324908345357  0.8192428511006251  0.9617741722744189  1.0000
  N   N3        1.0  0.4203249094989517  0.6807571488988234  0.4617741719645993  1.0000
  N   N4        1.0  0.07967509190402701  0.18075714902804652  0.03822582834109823  1.0000
  O   O1        1.0  0.6813561960965601  0.22231897807113205  0.4974135765671263  1.0000
  O   O2        1.0  0.8186438015527537  0.7223189779419089  0.002586423088019747  1.0000
  O   O3        1.0  0.3186438040189839  0.7776810220575395  0.502586423233919  1.0000
  O   O4        1.0  0.18135619600621677  0.27768102218676266  0.9974135767171478  1.0000
  Br  Br1       1.0  0.8478636421265212  0.13336627141807372  0.3560277957671975  1.0000
  Br  Br2       1.0  0.6521363580793659  0.6333662712888506  0.14397220388382628  1.0000
  Br  Br3       1.0  0.15213635798902267  0.8666337287105979  0.6439722040338478  1.0000
  Br  Br4       1.0  0.347863642036178  0.3666337288398209  0.856027795917219  1.0000
  Br  Br5       1.0  0.36268369724831656  0.23508377165257485  0.7345232202431644  1.0000
  Br  Br6       1.0  0.13731630277688403  0.7350837719104695  0.7654767797079022  1.0000
  Br  Br7       1.0  0.6373163028672273  0.7649162280889791  0.2654767795578808  1.0000
  Br  Br8       1.0  0.8626836973386598  0.26491622821820204  0.23452322009314297  1.0000
  Br  Br9       1.0  0.30527529105981194  0.016854238781345305  0.6992421404979644  1.0000
  Br  Br10      1.0  0.19472470896538874  0.51685423903924  0.8007578594531024  1.0000
  Br  Br11      1.0  0.6947247090557319  0.9831457609602086  0.3007578593030809  1.0000
  Br  Br12      1.0  0.8052752911501552  0.4831457610894316  0.19924214034794285  1.0000
