data_image0
_chemical_formula_structural       H20C8N8O4
_chemical_formula_sum              "H20 C8 N8 O4"
_cell_length_a       5.020154678318401
_cell_length_b       7.877047084078318
_cell_length_c       9.077298717015042
_cell_angle_alpha    84.75760465327119
_cell_angle_beta     73.95892353402517
_cell_angle_gamma    74.16888403020377

_space_group_name_H-M_alt    "P 1"
_space_group_IT_number       1

loop_
  _space_group_symop_operation_xyz
  'x, y, z'

loop_
  _atom_site_type_symbol
  _atom_site_label
  _atom_site_symmetry_multiplicity
  _atom_site_fract_x
  _atom_site_fract_y
  _atom_site_fract_z
  _atom_site_occupancy
  H   H1        1.0  0.36781101249553483  0.6223610732090715  0.18616786634583715  1.0000
  H   H2        1.0  0.6321889873960901  0.37763892684042494  0.8138321340281566  1.0000
  H   H3        1.0  0.7171847206789022  0.4744127304105811  0.14743990406176552  1.0000
  H   H4        1.0  0.282815279212723  0.5255872696389151  0.8525600963122283  1.0000
  H   H5        1.0  0.4836186681811853  0.7849203811130196  0.9538881628356365  1.0000
  H   H6        1.0  0.5163813317246003  0.21507961894439234  0.04611183643397525  1.0000
  H   H7        1.0  0.7851500789965506  0.6015947454179453  0.89422301563626  1.0000
  H   H8        1.0  0.21484992089507446  0.3984052546315509  0.10577698473773364  1.0000
  H   H9        1.0  0.6710730826567974  0.6992689813230721  0.3532431386199766  1.0000
  H   H10       1.0  0.32892691723482753  0.3007310187264242  0.6467568617540171  1.0000
  H   H11       1.0  0.9233990754578894  0.9002716250346513  0.9222248449436485  1.0000
  H   H12       1.0  0.07660092443373591  0.09972837501484492  0.07777515543034536  1.0000
  H   H13       1.0  0.7297079538604649  0.2697386345944069  0.4202677990093992  1.0000
  H   H14       1.0  0.27029204604532053  0.7302613654630052  0.5797322002602127  1.0000
  H   H15       1.0  0.8089859247265727  0.4486871837586048  0.4838979576675971  1.0000
  H   H16       1.0  0.19101407571295384  0.5513128149791415  0.516102041618379  1.0000
  H   H17       1.0  0.474533616639864  0.022621618295365693  0.3421023020702556  1.0000
  H   H18       1.0  0.5254663832517611  0.9773783817541307  0.6578976983037382  1.0000
  H   H19       1.0  0.1350776883329471  0.010321009478557675  0.3342175012385506  1.0000
  H   H20       1.0  0.864922311558678  0.9896789905709387  0.6657824991354433  1.0000
  C   C1        1.0  0.8367728313538231  0.8276999036878392  0.15218422610491592  1.0000
  C   C2        1.0  0.163227168537802  0.1723000963616572  0.8478157742690778  1.0000
  C   C3        1.0  0.5979371471805276  0.6139571461310792  0.14511636944835415  1.0000
  C   C4        1.0  0.4020628547893028  0.386042853904826  0.8548836306183515  1.0000
  C   C5        1.0  0.6760273077391261  0.7002529384640488  0.9838309191979098  1.0000
  C   C6        1.0  0.32397269423070435  0.2997470615718566  0.016169080868795687  1.0000
  C   C7        1.0  0.15942829645284964  0.24214336943634254  0.4182984483497363  1.0000
  C   C8        1.0  0.8405717034387755  0.7578566306131538  0.5817015520242574  1.0000
  N   N1        1.0  0.6802887421959039  0.7211239908292721  0.23856532140713874  1.0000
  N   N2        1.0  0.31971125770988174  0.2788760092281398  0.7614346778624731  1.0000
  N   N3        1.0  0.8668293925924961  0.8042466930308685  0.0006642047897963925  1.0000
  N   N4        1.0  0.13317060729912883  0.19575330701862775  0.9993357955841975  1.0000
  N   N5        1.0  0.25881961591459346  0.07470525256014496  0.3680167807139123  1.0000
  N   N6        1.0  0.7411803839911921  0.9252947474972671  0.6319832185556996  1.0000
  N   N7        1.0  0.8807292971554341  0.325001081377578  0.4374489272843543  1.0000
  N   N8        1.0  0.11927070273619084  0.6749989186719184  0.5625510730896395  1.0000
  O   O1        1.0  0.933518925032703  0.9342487077676596  0.20524611864223907  1.0000
  O   O2        1.0  0.06648107487308255  0.06575129228975259  0.7947538806273727  1.0000
  O   O3        1.0  0.33031002577611285  0.3205714310048344  0.4476880605615401  1.0000
  O   O4        1.0  0.6696899741155123  0.6794285690446619  0.5523119398124536  1.0000
