data_image0
_chemical_formula_structural       H56C56O8Cl2Br2
_chemical_formula_sum              "H56 C56 O8 Cl2 Br2"
_cell_length_a       10.069880704209504
_cell_length_b       13.761717606147847
_cell_length_c       10.149473450090568
_cell_angle_alpha    90.0
_cell_angle_beta     118.48682960168493
_cell_angle_gamma    90.0

_space_group_name_H-M_alt    "P 1"
_space_group_IT_number       1

loop_
  _space_group_symop_operation_xyz
  'x, y, z'

loop_
  _atom_site_type_symbol
  _atom_site_label
  _atom_site_symmetry_multiplicity
  _atom_site_fract_x
  _atom_site_fract_y
  _atom_site_fract_z
  _atom_site_occupancy
  H   H1        1.0  0.7714594793154644  0.18946745636134713  0.4641333019020941  1.0000
  H   H2        1.0  0.2285405205678404  0.6894674561379793  0.535866697656945  1.0000
  H   H3        1.0  0.7959964469778101  0.30892122638098596  0.7513342695477443  1.0000
  H   H4        1.0  0.2040035529054947  0.8089212261576182  0.24866573001129472  1.0000
  H   H5        1.0  0.4791768699137204  0.3758946054589187  0.5189296540301864  1.0000
  H   H6        1.0  0.5208231305131861  0.8758946059622044  0.4810703466498352  1.0000
  H   H7        1.0  0.6151195205916108  0.4682609834343064  0.40892274632339404  1.0000
  H   H8        1.0  0.38488047884480525  0.9682609832109386  0.5910772543619505  1.0000
  H   H9        1.0  0.6497416987975715  0.3087298164076537  0.2316348779025868  1.0000
  H   H10       1.0  0.3502583010857334  0.8087298169109394  0.7683651216564523  1.0000
  H   H11       1.0  0.4645092022942234  0.32010056928010716  0.9617820911387064  1.0000
  H   H12       1.0  0.5354907975890815  0.820100569783393  0.03821790842033252  1.0000
  H   H13       1.0  0.10783198253300973  0.23972705474832548  0.06201670340415453  1.0000
  H   H14       1.0  0.892168017350295  0.7397270545249577  0.9379832961548845  1.0000
  H   H15       1.0  0.29356950806547  0.2302112105966116  0.33232530382527836  1.0000
  H   H16       1.0  0.7064304923614364  0.7302112103732439  0.6676746968547432  1.0000
  H   H17       1.0  0.5072600838959936  0.48864007912761664  0.6859727807750619  1.0000
  H   H18       1.0  0.49273991598731115  0.9886400789042489  0.31402721878397716  1.0000
  H   H19       1.0  0.5146534535556893  0.5947356801118819  0.8823489600920985  1.0000
  H   H20       1.0  0.4853465468712172  0.09473567960859619  0.11765104058792322  1.0000
  H   H21       1.0  0.68861101980389  0.5579369952025384  0.15289767220773792  1.0000
  H   H22       1.0  0.3113889806230165  0.05793699542590615  0.8471023284722837  1.0000
  H   H23       1.0  0.853309386291567  0.41165341217794044  0.21904111157588743  1.0000
  H   H24       1.0  0.14669061359173768  0.9116534119545726  0.7809588879831515  1.0000
  H   H25       1.0  0.8465514172463492  0.3044586526123915  0.02074950518991335  1.0000
  H   H26       1.0  0.1534485831805572  0.8044586523890238  0.9792504954901082  1.0000
  H   H27       1.0  0.5503736440679939  0.1199831821329019  0.9166109295358927  1.0000
  H   H28       1.0  0.44962635581531085  0.6199831819095342  0.08338907002314623  1.0000
  H   H29       1.0  0.7203805032314384  0.006217554555964397  0.11487719950814232  1.0000
  H   H30       1.0  0.27961949665186636  0.5062175543325966  0.8851228000508966  1.0000
  H   H31       1.0  0.9769382943000899  0.9702958338597769  0.14606521346179463  1.0000
  H   H32       1.0  0.023061706126816496  0.4702958340831447  0.8539347872182269  1.0000
  H   H33       1.0  0.05796605873499367  0.04612522492951237  0.9741815702916228  1.0000
  H   H34       1.0  0.9420339411483112  0.5461252247061446  0.02581842926741626  1.0000
  H   H35       1.0  0.8878329558445145  0.1591818174659662  0.7755247211973176  1.0000
  H   H36       1.0  0.11216704403879033  0.6591818172425984  0.22447527836172135  1.0000
  H   H37       1.0  0.9851084349926784  0.47508266025450663  0.4868995823740824  1.0000
  H   H38       1.0  0.014891564890626364  0.9750826600311389  0.5131004171849567  1.0000
  H   H39       1.0  0.0008236214664107967  0.5427552914371112  0.3450273621169697  1.0000
  H   H40       1.0  0.9991763784168941  0.04275529166047899  0.6549726374420692  1.0000
  H   H41       1.0  0.1554595442887066  0.39181621613796036  0.40452629238664656  1.0000
  H   H42       1.0  0.8445404555945982  0.8918162159145926  0.5954737071723925  1.0000
  H   H43       1.0  0.25474416512204734  0.4240893460415699  0.59739607787864  1.0000
  H   H44       1.0  0.745255833770767  0.9240893458182021  0.40260392168572173  1.0000
  H   H45       1.0  0.2763578429426443  0.4945502367349538  0.4610100399144051  1.0000
  H   H46       1.0  0.7236421569406605  0.9945502372382395  0.5389899596446338  1.0000
  H   H47       1.0  0.9080609401200284  0.6663527317188491  0.45938688032215474  1.0000
  H   H48       1.0  0.09193905976327643  0.16635273121556343  0.5406131192368843  1.0000
  H   H49       1.0  0.9426566121633483  0.5886908641680613  0.6124280486809959  1.0000
  H   H50       1.0  0.057343388263558226  0.08869086439142902  0.38757195199902583  1.0000
  H   H51       1.0  0.08438828294913056  0.7894074919214185  0.6287397683750678  1.0000
  H   H52       1.0  0.9156117169341742  0.2894074921447863  0.37126023118397117  1.0000
  H   H53       1.0  0.1509293128598825  0.7073150204485764  0.7836169158189176  1.0000
  H   H54       1.0  0.8490706870234224  0.20731501994529075  0.21638308374012144  1.0000
  H   H55       1.0  0.9646862061008341  0.7539838977196147  0.7046844461223243  1.0000
  H   H56       1.0  0.035313793782470605  0.2539838979429825  0.2953155534367146  1.0000
  C   C1        1.0  0.5977775371638562  0.2654212013744731  0.46562648328315065  1.0000
  C   C2        1.0  0.4022224632630503  0.7654212018777589  0.534373517396871  1.0000
  C   C3        1.0  0.5746384274228943  0.18099280418944827  0.5530506916280098  1.0000
  C   C4        1.0  0.4253615730040121  0.6809928046927339  0.4469493090520118  1.0000
  C   C5        1.0  0.6099921891495537  0.2174386959272598  0.7106408795208583  1.0000
  C   C6        1.0  0.3900078112773527  0.7174386964305456  0.28935912115916335  1.0000
  C   C7        1.0  0.6765038008461253  0.3206262209616072  0.7207900223026715  1.0000
  C   C8        1.0  0.32349619903717947  0.8206262207382394  0.27920997725636737  1.0000
  C   C9        1.0  0.5980035469942026  0.35589639390740024  0.5574175111694735  1.0000
  C   C10       1.0  0.4019964534327038  0.8558963936840325  0.4425824895105481  1.0000
  C   C11       1.0  0.673523928637018  0.4404926742060103  0.5260567598394549  1.0000
  C   C12       1.0  0.3264760702557964  0.9404926739826426  0.473943239724907  1.0000
  C   C13       1.0  0.48490650894041903  0.2693345246631258  0.30073342597119074  1.0000
  C   C14       1.0  0.5150934909428857  0.769334524439758  0.6992665735878483  1.0000
  C   C15       1.0  0.5310516474489134  0.29402119675762  0.19509793006856138  1.0000
  C   C16       1.0  0.4689483529779931  0.7940211965342523  0.8049020706114604  1.0000
  C   C17       1.0  0.4271439256015105  0.30021673952634464  0.042701093107185  1.0000
  C   C18       1.0  0.5728560738349056  0.8002167393029769  0.9572989075781597  1.0000
  C   C19       1.0  0.27578186554169193  0.2803187298565582  0.9971813778057401  1.0000
  C   C20       1.0  0.7242181348852145  0.7803187296331905  0.0028186228742814513  1.0000
  C   C21       1.0  0.22641898703162436  0.25583899632028057  0.10004702373305326  1.0000
  C   C22       1.0  0.7735810128516806  0.7558389960969127  0.8999529758259858  1.0000
  C   C23       1.0  0.33161396660066655  0.2505589671786029  0.25172951959811124  1.0000
  C   C24       1.0  0.6683860332826382  0.7505589676818886  0.7482704799609278  1.0000
  C   C25       1.0  0.674046382697728  0.38694032622941993  0.8383549388527114  1.0000
  C   C26       1.0  0.3259536171855768  0.8869403267327056  0.16164506070632756  1.0000
  C   C27       1.0  0.5813930052329633  0.4691472405389102  0.802189738584213  1.0000
  C   C28       1.0  0.41860699465034157  0.969147241042196  0.19781026097482596  1.0000
  C   C29       1.0  0.5860737404692589  0.5302436250210616  0.914213291068222  1.0000
  C   C30       1.0  0.41392625842355546  0.030243625244429286  0.08578670849613977  1.0000
  C   C31       1.0  0.6830868780266002  0.5098320726233788  0.06487187241896823  1.0000
  C   C32       1.0  0.31691312185670456  0.009832072846746536  0.9351281271400708  1.0000
  C   C33       1.0  0.7758373853710359  0.4278803284968917  0.10210578463322029  1.0000
  C   C34       1.0  0.22416261451226896  0.9278803290001775  0.8978942149258188  1.0000
  C   C35       1.0  0.7718887405206422  0.36731904291814405  0.9901664250398421  1.0000
  C   C36       1.0  0.2281112593626627  0.8673190426947763  0.009833574519196895  1.0000
  C   C37       1.0  0.7072021433981739  0.14779417861992633  0.8337064689500397  1.0000
  C   C38       1.0  0.2927978564851309  0.6477941783965586  0.16629353060899926  1.0000
  C   C39       1.0  0.6614931510151643  0.10364727069844772  0.9292786157487251  1.0000
  C   C40       1.0  0.3385068488681406  0.6036472712017334  0.07072138381031394  1.0000
  C   C41       1.0  0.7576857016455125  0.03956500675153807  0.040748256301938485  1.0000
  C   C42       1.0  0.24231429878139396  0.5395650065281703  0.9592517443780832  1.0000
  C   C43       1.0  0.9006275188733046  0.01897583626358816  0.057895861164515505  1.0000
  C   C44       1.0  0.09937248101000005  0.5189758360402204  0.9421041383945233  1.0000
  C   C45       1.0  0.9466667298495125  0.062255425123479  0.9618292771675623  1.0000
  C   C46       1.0  0.053333269043301844  0.5622554249001113  0.03817072239679957  1.0000
  C   C47       1.0  0.8506105644734406  0.12586638888929044  0.8499703704920311  1.0000
  C   C48       1.0  0.1493894359534658  0.6258663893925762  0.15002963018799062  1.0000
  C   C49       1.0  0.06445060564100201  0.51617257258837  0.46158045217342847  1.0000
  C   C50       1.0  0.9355493942423029  0.016172572811737795  0.5384195473856105  1.0000
  C   C51       1.0  0.19594983604915114  0.45321346640725374  0.4829475828302744  1.0000
  C   C52       1.0  0.8040501638341537  0.9532134669105395  0.5170524167287647  1.0000
  C   C53       1.0  0.9944156673051728  0.6434099749325195  0.5723967634042701  1.0000
  C   C54       1.0  0.005584331587641509  0.14340997515588733  0.42760323616009166  1.0000
  C   C55       1.0  0.0525965797661698  0.7287580109564017  0.6780867512519161  1.0000
  C   C56       1.0  0.9474034206607367  0.22875801117976946  0.3219132494281056  1.0000
  O   O1        1.0  0.5425186701221264  0.09787968759061373  0.5083824057161296  1.0000
  O   O2        1.0  0.45748133030478005  0.597879687367246  0.491617594963892  1.0000
  O   O3        1.0  0.7512662241015836  0.2539595477848416  0.49656066954139866  1.0000
  O   O4        1.0  0.2487337757817213  0.7539595475614738  0.5034393300176403  1.0000
  O   O5        1.0  0.7914819485809895  0.4765521737686457  0.6203407375017035  1.0000
  O   O6        1.0  0.20851805184591682  0.976552173545278  0.37965926317831816  1.0000
  O   O7        1.0  0.11840809238938016  0.5982064772439684  0.5615271709410633  1.0000
  O   O8        1.0  0.8815919074939246  0.098206477467336  0.43847282861797576  1.0000
  Cl  Cl1       1.0  0.4199316152096908  0.22923572989106342  0.6878430523430017  1.0000
  Cl  Cl2       1.0  0.580068384673614  0.7292357296676956  0.3121569472160372  1.0000
  Br  Br1       1.0  0.13108198379448266  0.28616336148626614  0.7893533890209855  1.0000
  Br  Br2       1.0  0.8689180166324237  0.7861633612628984  0.2106466116590361  1.0000
