data_image0
_chemical_formula_structural       H110B40C60N18O4
_chemical_formula_sum              "H110 B40 C60 N18 O4"
_cell_length_a       7.29101738492615
_cell_length_b       17.585044068836115
_cell_length_c       17.7500764511381
_cell_angle_alpha    115.69119729549003
_cell_angle_beta     90.31191127109156
_cell_angle_gamma    93.4652407642709

_space_group_name_H-M_alt    "P 1"
_space_group_IT_number       1

loop_
  _space_group_symop_operation_xyz
  'x, y, z'

loop_
  _atom_site_type_symbol
  _atom_site_label
  _atom_site_symmetry_multiplicity
  _atom_site_fract_x
  _atom_site_fract_y
  _atom_site_fract_z
  _atom_site_occupancy
  H   H1        1.0  0.9239802346543428  0.8031167962678821  0.2767759671913376  1.0000
  H   H2        1.0  0.0760197661618757  0.1968832041132759  0.7232240332913138  1.0000
  H   H3        1.0  0.12952200216332543  0.7912814193028258  0.2494390698431058  1.0000
  H   H4        1.0  0.8704779971489006  0.2087185802348017  0.7505609300126118  1.0000
  H   H5        1.0  0.14326034959375203  0.7849015417526704  0.7506778098564146  1.0000
  H   H6        1.0  0.8567396510899039  0.21509845778408426  0.24932219000012343  1.0000
  H   H7        1.0  0.9372673002299823  0.7996229100946423  0.7759835043485721  1.0000
  H   H8        1.0  0.06273270053973609  0.2003770900120574  0.22401649550851174  1.0000
  H   H9        1.0  0.3133655088283273  0.07105701394414782  0.05759429030979116  1.0000
  H   H10       1.0  0.6866344905699612  0.9289429861634245  0.9424057095464723  1.0000
  H   H11       1.0  0.161985681989439  0.8921657976532125  0.8748915259509173  1.0000
  H   H12       1.0  0.8380143173227871  0.10783420188441495  0.12510847390480023  1.0000
  H   H13       1.0  0.4706176374053156  0.19903559452783728  0.06837313453593974  1.0000
  H   H14       1.0  0.5293823619929728  0.8009644055797351  0.9316268653203238  1.0000
  H   H15       1.0  0.5458477747965125  0.21188926546110165  0.9338764823449306  1.0000
  H   H16       1.0  0.454152224601776  0.788110734646471  0.06612351751133302  1.0000
  H   H17       1.0  0.4648736191082332  0.08801216269487835  0.7981955094951909  1.0000
  H   H18       1.0  0.5351263802039927  0.9119878368427493  0.20180449036052672  1.0000
  H   H19       1.0  0.30821729419489613  0.9555716747755726  0.7967405332017452  1.0000
  H   H20       1.0  0.6917827066213224  0.04442832560558534  0.20325946728090616  1.0000
  H   H21       1.0  0.041814521150944826  0.8010671110465842  0.9289935293017684  1.0000
  H   H22       1.0  0.9581854781612813  0.19893288849104318  0.07100647055394924  1.0000
  H   H23       1.0  0.9516378050152631  0.7835114791956073  0.05735988252162259  1.0000
  H   H24       1.0  0.04836219580095543  0.21648852118555054  0.9426401179610288  1.0000
  H   H25       1.0  0.025538093086998344  0.9018102518690068  0.19821349568884983  1.0000
  H   H26       1.0  0.9744619076827199  0.09818974823769286  0.8017865041682342  1.0000
  H   H27       1.0  0.1836134090804157  0.03765177357461858  0.2059706938334528  1.0000
  H   H28       1.0  0.8163865917358029  0.9623482268065394  0.7940293066491986  1.0000
  H   H29       1.0  0.32053525184661025  0.06939162823861159  0.5585429050721158  1.0000
  H   H30       1.0  0.6794647475981784  0.9306083721434194  0.4414570954097152  1.0000
  H   H31       1.0  0.14895130543271384  0.8951568693659852  0.3757506262608727  1.0000
  H   H32       1.0  0.8510486953370046  0.10484313074071451  0.6242493735962111  1.0000
  H   H33       1.0  0.4781873696704317  0.19742278465089863  0.5695944551746782  1.0000
  H   H34       1.0  0.5218126310992867  0.802577215455801  0.43040554468240566  1.0000
  H   H35       1.0  0.5346709168956049  0.21435564806819793  0.4355316065534597  1.0000
  H   H36       1.0  0.46532908254918387  0.7856443523138329  0.5644683939283713  1.0000
  H   H37       1.0  0.43681521336234674  0.0943357298597908  0.2999113285813685  1.0000
  H   H38       1.0  0.5631847860824419  0.90566427052224  0.7000886719004624  1.0000
  H   H39       1.0  0.28033047993688853  0.9615517641657957  0.29787977473308186  1.0000
  H   H40       1.0  0.7196695207467674  0.03844823537095895  0.7021202251234563  1.0000
  H   H41       1.0  0.032445621224129535  0.8026562313350084  0.4286822940726393  1.0000
  H   H42       1.0  0.9675543795060266  0.19734376847620452  0.5713177064094662  1.0000
  H   H43       1.0  0.9569736746401184  0.7808581441466578  0.5563242243030344  1.0000
  H   H44       1.0  0.04302632475817012  0.21914185596091465  0.44367577555322896  1.0000
  H   H45       1.0  0.04989249558544166  0.8947794590892346  0.6974605949089199  1.0000
  H   H46       1.0  0.9501075051842767  0.10522054101746482  0.30253940494816395  1.0000
  H   H47       1.0  0.20987745870000535  0.03066961272237567  0.7064041346923252  1.0000
  H   H48       1.0  0.7901225406122206  0.9693303868152516  0.29359586516339237  1.0000
  H   H49       1.0  0.2921488207675187  0.4813959275050236  0.6151551444056794  1.0000
  H   H50       1.0  0.7078511786772699  0.5186040728770073  0.38484485607615154  1.0000
  H   H51       1.0  0.2975696718803704  0.495677647164783  0.750767626194371  1.0000
  H   H52       1.0  0.7024303275179181  0.5043223529427895  0.2492323736618925  1.0000
  H   H53       1.0  0.29652622550048624  0.5166185730749493  0.886549934186991  1.0000
  H   H54       1.0  0.7034737753157323  0.48338142730620864  0.11345006629566039  1.0000
  H   H55       1.0  0.178287568335582  0.4137928527810237  0.4785916947595467  1.0000
  H   H56       1.0  0.8217124324806367  0.5862071476001341  0.5214083057231046  1.0000
  H   H57       1.0  0.8445745555147272  0.35546662642153054  0.44983204901212714  1.0000
  H   H58       1.0  0.15542544379749887  0.6445333731160969  0.5501679508435904  1.0000
  H   H59       1.0  0.6624296788607067  0.36118708729642723  0.5724367887669003  1.0000
  H   H60       1.0  0.3375703219090117  0.6388129128102724  0.42756321109018364  1.0000
  H   H61       1.0  0.8061085197364646  0.42425031035076266  0.7142323828699295  1.0000
  H   H62       1.0  0.19389147966182385  0.5757496897568098  0.28576761698633396  1.0000
  H   H63       1.0  0.8285617468315546  0.5726140660339283  0.7839366979517213  1.0000
  H   H64       1.0  0.1714382525667339  0.42738593407364417  0.21606330190454215  1.0000
  H   H65       1.0  0.7021559339416521  0.636186019736661  0.9245958504133587  1.0000
  H   H66       1.0  0.2978440654170741  0.3638139800754248  0.07540415006792642  1.0000
  H   H67       1.0  0.8839649028308212  0.6414823575242704  0.04854870997884522  1.0000
  H   H68       1.0  0.11603509661396755  0.35851764285776044  0.9514512905029857  1.0000
  H   H69       1.0  0.200944061257656  0.5840135609091706  0.022276883700554206  1.0000
  H   H70       1.0  0.7990559395120623  0.41598643919752915  0.9777231161565296  1.0000
  H   H71       1.0  0.4272006355143015  0.12729220323394386  0.1791219124944387  1.0000
  H   H72       1.0  0.5727993653019172  0.8727077971472141  0.8208780879882127  1.0000
  H   H73       1.0  0.21551134958158474  0.2273586790714314  0.3388175431934342  1.0000
  H   H74       1.0  0.7844886497306414  0.7726413204661962  0.6611824566622835  1.0000
  H   H75       1.0  0.68389530096028  0.22252598803531956  0.33329276062030394  1.0000
  H   H76       1.0  0.3161046984380086  0.7774740120722529  0.6667072392359595  1.0000
  H   H77       1.0  0.6849360980982268  0.265174632431757  0.16218711472128844  1.0000
  H   H78       1.0  0.3150639012139994  0.7348253671058705  0.8378128851344291  1.0000
  H   H79       1.0  0.21376428874537684  0.26851624385796036  0.16589310200870186  1.0000
  H   H80       1.0  0.7862357119382792  0.7314837556787943  0.8341068978478362  1.0000
  H   H81       1.0  0.4787185319768878  0.3590008239513693  0.45776338838573133  1.0000
  H   H82       1.0  0.5212814673353382  0.6409991755862582  0.5422366114699863  1.0000
  H   H83       1.0  0.8115774816675777  0.3822428164723363  0.3320699362349041  1.0000
  H   H84       1.0  0.18842251910214075  0.6177571836343634  0.6679300636221798  1.0000
  H   H85       1.0  0.4785835940420019  0.4180325836335788  0.21425016210728687  1.0000
  H   H86       1.0  0.521416405270224  0.5819674159040487  0.7857498377484308  1.0000
  H   H87       1.0  0.14578595667945396  0.39264794659862695  0.33940223167998246  1.0000
  H   H88       1.0  0.8542140427188344  0.6073520535089455  0.660597768176281  1.0000
  H   H89       1.0  0.4936617188458929  0.506249919978092  0.40950353988924665  1.0000
  H   H90       1.0  0.506338281837763  0.4937500795586626  0.5904964599672914  1.0000
  H   H91       1.0  0.4613629927919385  0.12458091794498208  0.6792613861007207  1.0000
  H   H92       1.0  0.5386370079777798  0.8754190821617177  0.3207386137563632  1.0000
  H   H93       1.0  0.24126904314424177  0.2192738369965228  0.836494472374378  1.0000
  H   H94       1.0  0.7587309576719768  0.7807261633846352  0.1635055281082733  1.0000
  H   H95       1.0  0.23194055204927894  0.2606813536819345  0.6638983363843325  1.0000
  H   H96       1.0  0.7680594473094472  0.7393186461301513  0.3361016640969526  1.0000
  H   H97       1.0  0.7038185992896911  0.26601637818661994  0.662822413613043  1.0000
  H   H98       1.0  0.2961814014800273  0.7339836219200797  0.3371775862440409  1.0000
  H   H99       1.0  0.7123127842043314  0.22691069236211175  0.8359219292314163  1.0000
  H   H100      1.0  0.28768721519395696  0.7730893077454608  0.1640780706248472  1.0000
  H   H101      1.0  0.15092699796821263  0.3786939946807205  0.8343197255964367  1.0000
  H   H102      1.0  0.8490730013440133  0.6213060048569069  0.16568027425928078  1.0000
  H   H103      1.0  0.4816380626123303  0.4141283588766309  0.7124118312973471  1.0000
  H   H104      1.0  0.5183619381178259  0.585871640934582  0.28758816918475844  1.0000
  H   H105      1.0  0.8194327957070767  0.391243129305091  0.8351386665534793  1.0000
  H   H106      1.0  0.18056720497657927  0.6087568702316637  0.16486133330305866  1.0000
  H   H107      1.0  0.4902732845671409  0.3576124575267031  0.9574961036819489  1.0000
  H   H108      1.0  0.5097267147450851  0.6423875420109244  0.042503896173768714  1.0000
  H   H109      1.0  0.506544430211814  0.5036795147774872  0.9079994517729996  1.0000
  H   H110      1.0  0.49345556918647443  0.4963204853300853  0.09200054808326394  1.0000
  B   B1        1.0  0.44017186578672207  0.20168677657087683  0.22327505692807925  1.0000
  B   B2        1.0  0.5598281348969338  0.7983132229658777  0.7767249429284587  1.0000
  B   B3        1.0  0.329132828908157  0.2606489298675644  0.3120141049989044  1.0000
  B   B4        1.0  0.6708671719080616  0.7393510705135935  0.6879858954837469  1.0000
  B   B5        1.0  0.578149567669459  0.2581418882022247  0.3092724180491761  1.0000
  B   B6        1.0  0.4218504330606972  0.7418581116089881  0.6907275824329293  1.0000
  B   B7        1.0  0.5786015103998577  0.2806307418775707  0.2177417638156464  1.0000
  B   B8        1.0  0.4213984890449309  0.7193692585044601  0.7822582366661845  1.0000
  B   B9        1.0  0.32871135488392306  0.28262887839418205  0.22015821060713028  1.0000
  B   B10       1.0  0.6712886445143654  0.7173711217133905  0.7798417892491333  1.0000
  B   B11       1.0  0.47328357447136477  0.34789632993964364  0.38598143653353323  1.0000
  B   B12       1.0  0.5267164249269237  0.6521036701679289  0.6140185633227302  1.0000
  B   B13       1.0  0.6499224061924258  0.36199880027783876  0.31979684311379286  1.0000
  B   B14       1.0  0.3500775931198002  0.6380011992597887  0.6802031567419248  1.0000
  B   B15       1.0  0.4733526694675876  0.37976903663788825  0.2566171479398577  1.0000
  B   B16       1.0  0.5266473312160684  0.6202309628988664  0.7433828519166803  1.0000
  B   B17       1.0  0.29571619284715583  0.3658213032797976  0.32286107205034936  1.0000
  B   B18       1.0  0.7042838079690628  0.6341786971013602  0.677138928432302  1.0000
  B   B19       1.0  0.4864978777847745  0.4321364644608665  0.36292503056856473  1.0000
  B   B20       1.0  0.5135021215274514  0.567863535076761  0.6370749692871529  1.0000
  B   B21       1.0  0.46762399459540244  0.19892048905267257  0.7232994682774645  1.0000
  B   B22       1.0  0.5323760061743159  0.8010795110540272  0.2767005315796195  1.0000
  B   B23       1.0  0.3518785914114165  0.2551422884997575  0.8109233167073995  1.0000
  B   B24       1.0  0.6481214093583019  0.7448577116069423  0.18907668314968454  1.0000
  B   B25       1.0  0.3471026241711596  0.2769754946293144  0.7187713530854819  1.0000
  B   B26       1.0  0.6528973752271289  0.723024505478258  0.2812286467707815  1.0000
  B   B27       1.0  0.5978489060575186  0.28012700556927167  0.7181583560384577  1.0000
  B   B28       1.0  0.40215109467263765  0.7198729942419413  0.2818416444436479  1.0000
  B   B29       1.0  0.6019684381192179  0.25906154261354586  0.810096482358035  1.0000
  B   B30       1.0  0.39803156256443806  0.7409384569232087  0.189903517498503  1.0000
  B   B31       1.0  0.30623768864024464  0.35868432511360365  0.8209360050940595  1.0000
  B   B32       1.0  0.6937623106719814  0.6413156744240238  0.1790639947616581  1.0000
  B   B33       1.0  0.48099405289650576  0.3765444344887282  0.755497725754525  1.0000
  B   B34       1.0  0.5190059465482829  0.6234555658933026  0.24450227472730604  1.0000
  B   B35       1.0  0.6615357288629817  0.3638507537357864  0.8200714320785601  1.0000
  B   B36       1.0  0.33846427190673667  0.6361492463709133  0.17992856777852376  1.0000
  B   B37       1.0  0.4863052844215202  0.3458637157496499  0.8855161395021368  1.0000
  B   B38       1.0  0.5136947163481982  0.6541362843570497  0.1144838603549471  1.0000
  B   B39       1.0  0.4911668096976427  0.4294725663533287  0.8616872015283337  1.0000
  B   B40       1.0  0.5088331910720757  0.570527433753371  0.13831279832875026  1.0000
  C   C1        1.0  0.43804517132204207  0.14919949781685768  0.005878118258842835  1.0000
  C   C2        1.0  0.5619548293616139  0.8508005017198969  0.9941218815976952  1.0000
  C   C3        1.0  0.4791112955594069  0.1544970281682459  0.932833281754312  1.0000
  C   C4        1.0  0.5208887052103114  0.8455029719384537  0.06716671810277192  1.0000
  C   C5        1.0  0.4326735638696412  0.08387237979940751  0.8562798405570633  1.0000
  C   C6        1.0  0.5673264354425849  0.9161276197382201  0.14372015929865434  1.0000
  C   C7        1.0  0.3453819279278508  0.011297067879279218  0.8546982044801493  1.0000
  C   C8        1.0  0.6546180714704376  0.9887029322282931  0.14530179537611412  1.0000
  C   C9        1.0  0.30207842840415117  0.008773076158412352  0.9309320152370262  1.0000
  C   C10       1.0  0.6979215709941373  0.9912269239491602  0.06906798461923731  1.0000
  C   C11       1.0  0.16028081080811996  0.9289147731147022  0.002754368914271904  1.0000
  C   C12       1.0  0.8397191885506062  0.07108522669738356  0.9972456315670132  1.0000
  C   C13       1.0  0.07016798450075185  0.8514255884834014  0.9917282159252221  1.0000
  C   C14       1.0  0.9298320148975365  0.14857441162417098  0.008271783931041362  1.0000
  C   C15       1.0  0.02128244725966668  0.8422723271654827  0.06278346661239598  1.0000
  C   C16       1.0  0.9787175521386217  0.15772767294208978  0.9372165332438674  1.0000
  C   C17       1.0  0.06136933517997295  0.908933203885113  0.1420733855369136  1.0000
  C   C18       1.0  0.9386306655897454  0.09106679622158662  0.8579266143201704  1.0000
  C   C19       1.0  0.14962496424778524  0.982940729826669  0.14650428759930048  1.0000
  C   C20       1.0  0.8503750351970034  0.017059270555361692  0.8534957128825305  1.0000
  C   C21       1.0  0.4379135919666417  0.14929738123926015  0.507168179131563  1.0000
  C   C22       1.0  0.5620864087170143  0.8507026182974944  0.49283182072497506  1.0000
  C   C23       1.0  0.4685601334507793  0.15684474148206215  0.43440591776570847  1.0000
  C   C24       1.0  0.5314398658614469  0.8431552580555652  0.565594082090009  1.0000
  C   C25       1.0  0.4124451780480726  0.08833244744724779  0.3577289009555414  1.0000
  C   C26       1.0  0.5875548213502159  0.9116675526603247  0.6422710989007221  1.0000
  C   C27       1.0  0.3256323224073465  0.015591948056618923  0.35589808114919963  1.0000
  C   C28       1.0  0.6743676783623718  0.9844080520500808  0.6441019187078844  1.0000
  C   C29       1.0  0.2926461425238372  0.01078459795194514  0.4319485280588794  1.0000
  C   C30       1.0  0.7073538568744513  0.9892154021556272  0.568051471797384  1.0000
  C   C31       1.0  0.16088658561762728  0.9283481350531134  0.5031416507955422  1.0000
  C   C32       1.0  0.8391134136945989  0.071651864484514  0.49685834906017534  1.0000
  C   C33       1.0  0.06886470961773408  0.8510581365594708  0.4915670877703847  1.0000
  C   C34       1.0  0.9311352898270546  0.14894186382255997  0.5084329127114462  1.0000
  C   C35       1.0  0.02847531991142659  0.8394774949539038  0.562192364033358  1.0000
  C   C36       1.0  0.9715246794868618  0.16052250515366878  0.4378076358229054  1.0000
  C   C37       1.0  0.07907030095916266  0.9037234449839893  0.6416595162784914  1.0000
  C   C38       1.0  0.9209296998105557  0.09627655512271034  0.35834048357859244  1.0000
  C   C39       1.0  0.16827064519743254  0.9777945239614697  0.646674667510604  1.0000
  C   C40       1.0  0.831729355618786  0.02220547641968845  0.35332533297204743  1.0000
  C   C41       1.0  0.08631483166131762  0.41498451758573135  0.5272809796271167  1.0000
  C   C42       1.0  0.9136851677369708  0.5850154825218411  0.47271902022914664  1.0000
  C   C43       1.0  0.9054017204977973  0.38302776169214087  0.5129514968509409  1.0000
  C   C44       1.0  0.09459827881442857  0.6169722378454866  0.48704850300477676  1.0000
  C   C45       1.0  0.8044069207711584  0.38717477573886666  0.5815095201423665  1.0000
  C   C46       1.0  0.19559308004506015  0.6128252246422914  0.418490480340285  1.0000
  C   C47       1.0  0.8828967713111662  0.4237427108509506  0.6617065797863013  1.0000
  C   C48       1.0  0.11710322804756018  0.5762572889611352  0.33829342069498375  1.0000
  C   C49       1.0  0.06426436110714619  0.4584060415779292  0.6740159297107978  1.0000
  C   C50       1.0  0.9357356382050798  0.5415939579596982  0.3259840701449197  1.0000
  C   C51       1.0  0.07598741658423813  0.5388365502512114  0.8260320453247163  1.0000
  C   C52       1.0  0.9240125841854803  0.46116344985548824  0.17396795453236757  1.0000
  C   C53       1.0  0.9051322363628528  0.5735206957231385  0.8370343383401456  1.0000
  C   C54       1.0  0.09486776440686567  0.4264793043835612  0.16296566151693825  1.0000
  C   C55       1.0  0.8362964456999492  0.610132430716691  0.9165992980906899  1.0000
  C   C56       1.0  0.1637035550697693  0.38986756939000866  0.0834007017663941  1.0000
  C   C57       1.0  0.937581663921965  0.6142651221894844  0.9858722090869295  1.0000
  C   C58       1.0  0.06241833684775337  0.3857348779172152  0.0141277907701544  1.0000
  C   C59       1.0  0.10906962232586315  0.582600345237494  0.9729447387740383  1.0000
  C   C60       1.0  0.8909303783577928  0.4173996542992606  0.027055261082499702  1.0000
  N   N1        1.0  0.3520122880124253  0.07763514252436396  0.0034764914394810843  1.0000
  N   N2        1.0  0.647987712757293  0.9223648575823358  0.9965235084176028  1.0000
  N   N3        1.0  0.21259403098025265  0.9396254792987276  0.9327679003377735  1.0000
  N   N4        1.0  0.7874059697894659  0.06037452080797212  0.06723209951931047  1.0000
  N   N5        1.0  0.1984569392118506  0.9932498464868846  0.07850961308100954  1.0000
  N   N6        1.0  0.8015430615578677  0.0067501536198149555  0.9214903867760743  1.0000
  N   N7        1.0  0.3518833512975499  0.07761912060272777  0.5045463207956034  1.0000
  N   N8        1.0  0.6481166480146762  0.9223808789348997  0.49545367906011434  1.0000
  N   N9        1.0  0.20389924257745548  0.9413502080101367  0.43343838713394084  1.0000
  N   N10       1.0  0.7961007567812709  0.05864979180194905  0.5665616133473442  1.0000
  N   N11       1.0  0.20896731774335683  0.9904548589773627  0.5791114549835146  1.0000
  N   N12       1.0  0.7910326816549317  0.009545141130209659  0.42088854487274885  1.0000
  N   N13       1.0  0.15986399618707076  0.45143054550371897  0.6062020061995695  1.0000
  N   N14       1.0  0.840136003257718  0.5485694548783119  0.3937979942822615  1.0000
  N   N15       1.0  0.15703119938497634  0.4984458485903972  0.7503672463017639  1.0000
  N   N16       1.0  0.8429688000598123  0.5015541517916337  0.24963275418006717  1.0000
  N   N17       1.0  0.17282402879004313  0.5461424031270461  0.8945873461863809  1.0000
  N   N18       1.0  0.8271759705686831  0.4538575966850397  0.10541265429490423  1.0000
  O   O1        1.0  0.04564399082929758  0.8330827353477352  0.28463217149055436  1.0000
  O   O2        1.0  0.9543560085689907  0.1669172647598372  0.715367828365709  1.0000
  O   O3        1.0  0.06078932403369254  0.8281509128126892  0.7842805474562915  1.0000
  O   O4        1.0  0.939210676736026  0.1718490872940106  0.2157194524007924  1.0000
