data_image0
_chemical_formula_structural       H6C12Cl4I2
_chemical_formula_sum              "H6 C12 Cl4 I2"
_cell_length_a       5.432619682291655
_cell_length_b       6.375304303219961
_cell_length_c       10.983382549595676
_cell_angle_alpha    96.80934144438471
_cell_angle_beta     92.41008512466725
_cell_angle_gamma    98.22960530076399

_space_group_name_H-M_alt    "P 1"
_space_group_IT_number       1

loop_
  _space_group_symop_operation_xyz
  'x, y, z'

loop_
  _atom_site_type_symbol
  _atom_site_label
  _atom_site_symmetry_multiplicity
  _atom_site_fract_x
  _atom_site_fract_y
  _atom_site_fract_z
  _atom_site_occupancy
  H   H1        1.0  0.12661006059164615  0.48746693858522333  0.8585673005489545  1.0000
  H   H2        1.0  0.873389939545033  0.5125330611051314  0.1414326998106558  1.0000
  H   H3        1.0  0.4541510496376722  0.8082246174437265  0.8856586482371545  1.0000
  H   H4        1.0  0.5458489503811278  0.19177538204516156  0.11434135120386812  1.0000
  H   H5        1.0  0.8248584682809765  0.8221343283630823  0.03028162021269727  1.0000
  H   H6        1.0  0.17514153185570275  0.17786567132727238  0.9697183801469131  1.0000
  C   C1        1.0  0.8497605498931041  0.09841484871335184  0.5848513982475155  1.0000
  C   C2        1.0  0.15023945024357518  0.901585150977003  0.4151486021120947  1.0000
  C   C3        1.0  0.869471900445329  0.16221923020723078  0.4669428434748783  1.0000
  C   C4        1.0  0.13052809969135026  0.837780769483124  0.5330571568847319  1.0000
  C   C5        1.0  0.02003020737941859  0.06432724881494663  0.38281622268592735  1.0000
  C   C6        1.0  0.9799697926393814  0.9356727506739416  0.6171837767550952  1.0000
  C   C7        1.0  0.2910015373353189  0.49288641656697585  0.9199643548989993  1.0000
  C   C8        1.0  0.7089984626834811  0.5071135829219122  0.0800356445420233  1.0000
  C   C9        1.0  0.47382420029960337  0.6738628964660047  0.9362380843918563  1.0000
  C   C10       1.0  0.5261757998370759  0.32613710322434997  0.06376191596775396  1.0000
  C   C11       1.0  0.68243368614393  0.6809925707110857  0.016393806043313995  1.0000
  C   C12       1.0  0.3175663120353046  0.3190074287831449  0.983606193400673  1.0000
  Cl  Cl1       1.0  0.7082016485787781  0.35640291764686216  0.4233641533002115  1.0000
  Cl  Cl2       1.0  0.2917983515579012  0.6435970820434926  0.5766358470593989  1.0000
  Cl  Cl3       1.0  0.04386536393094946  0.1464020087310348  0.24002649341098298  1.0000
  Cl  Cl4       1.0  0.9561346363595101  0.8535979923426945  0.7599735060299259  1.0000
  I   I1        1.0  0.6334968804165634  0.24651613616365958  0.7132779260364254  1.0000
  I   I2        1.0  0.36650311972011584  0.753483863526695  0.28672207432318486  1.0000
