data_image0
_chemical_formula_structural       H10C10O6Br2
_chemical_formula_sum              "H10 C10 O6 Br2"
_cell_length_a       4.2359434078578815
_cell_length_b       6.2496780562015255
_cell_length_c       11.325860742059215
_cell_angle_alpha    97.05843891282332
_cell_angle_beta     92.7928578689341
_cell_angle_gamma    91.70230541965122

_space_group_name_H-M_alt    "P 1"
_space_group_IT_number       1

loop_
  _space_group_symop_operation_xyz
  'x, y, z'

loop_
  _atom_site_type_symbol
  _atom_site_label
  _atom_site_symmetry_multiplicity
  _atom_site_fract_x
  _atom_site_fract_y
  _atom_site_fract_z
  _atom_site_occupancy
  H   H1        1.0  0.031489193538903136  0.345469004294087  0.842177439993105  1.0000
  H   H2        1.0  0.9685108044745537  0.6545309943243889  0.1578225597954053  1.0000
  H   H3        1.0  0.1699155408142265  0.7875374463964021  0.43663968780944606  1.0000
  H   H4        1.0  0.8300844597523149  0.21246255403451225  0.5633603128641398  1.0000
  H   H5        1.0  0.23045070186762662  0.3397580318138164  0.026517066804010496  1.0000
  H   H6        1.0  0.769549298552869  0.6602419684200527  0.9734829329786939  1.0000
  H   H7        1.0  0.7400852487781174  0.05405540660055914  0.9100004907602305  1.0000
  H   H8        1.0  0.2599147494283136  0.9459445938161689  0.08999950992138933  1.0000
  H   H9        1.0  0.7825125933510306  0.16635736743944662  0.06268806472743209  1.0000
  H   H10       1.0  0.21748740706946504  0.8336426327944224  0.9373119350552723  1.0000
  C   C1        1.0  0.7266719797686357  0.4973049310897865  0.7472906338769298  1.0000
  C   C2        1.0  0.2733280207979057  0.5026950693411277  0.25270936679665595  1.0000
  C   C3        1.0  0.6070297896474508  0.5074779153332855  0.6217472630177996  1.0000
  C   C4        1.0  0.39297020841293445  0.49252208488639715  0.37825273677293886  1.0000
  C   C5        1.0  0.41846127999318455  0.6699104675015082  0.5837432131132848  1.0000
  C   C6        1.0  0.5815387205733569  0.330089532929406  0.41625678756030093  1.0000
  C   C7        1.0  0.3153290178165921  0.6606429172612011  0.4646668798724666  1.0000
  C   C8        1.0  0.6846709826039035  0.339357082972668  0.5353331199102379  1.0000
  C   C9        1.0  0.9112183985496684  0.09841821706291974  0.9857462213135125  1.0000
  C   C10       1.0  0.08878160182389898  0.9015817815697423  0.014253778466963797  1.0000
  O   O1        1.0  0.963413150378388  0.36636260458121406  0.7542267177087207  1.0000
  O   O2        1.0  0.0365868500421077  0.633637395652655  0.2457732820739838  1.0000
  O   O3        1.0  0.6098868185093824  0.5984359205993256  0.8347974603093947  1.0000
  O   O4        1.0  0.39011318191111316  0.4015640796345434  0.16520253947330976  1.0000
  O   O5        1.0  0.1292934973620127  0.25863984852961247  0.9520743593625901  1.0000
  O   O6        1.0  0.870706503058483  0.7413601517042565  0.04792564042011441  1.0000
  Br  Br1       1.0  0.29203556062960495  0.9141030911302862  0.6851340751931169  1.0000
  Br  Br2       1.0  0.707964437576826  0.08589690928644167  0.31486592548850295  1.0000
