data_image0
_chemical_formula_structural       H28C34N2O6Cl2
_chemical_formula_sum              "H28 C34 N2 O6 Cl2"
_cell_length_a       6.988659613410347
_cell_length_b       6.935768104108154
_cell_length_c       15.59593889694741
_cell_angle_alpha    102.12484770252617
_cell_angle_beta     97.25467492155308
_cell_angle_gamma    101.60762900715099

_space_group_name_H-M_alt    "P 1"
_space_group_IT_number       1

loop_
  _space_group_symop_operation_xyz
  'x, y, z'

loop_
  _atom_site_type_symbol
  _atom_site_label
  _atom_site_symmetry_multiplicity
  _atom_site_fract_x
  _atom_site_fract_y
  _atom_site_fract_z
  _atom_site_occupancy
  H   H1        1.0  0.37005640622339936  0.6998601547182604  0.6491734151771134  1.0000
  H   H2        1.0  0.6299435946012587  0.30013984511027264  0.3508265851865439  1.0000
  H   H3        1.0  0.7107372273749905  0.9335908008495868  0.5208966958434113  1.0000
  H   H4        1.0  0.2892627720206301  0.06640919898732693  0.47910330452080097  1.0000
  H   H5        1.0  0.6955196738445794  0.6679875428855488  0.4836567974273754  1.0000
  H   H6        1.0  0.30448032529347585  0.33201245660695083  0.5163432022706989  1.0000
  H   H7        1.0  0.9475970211751724  0.8492526956557551  0.43502589084563803  1.0000
  H   H8        1.0  0.05240297939192058  0.15074730382836396  0.5649741088518814  1.0000
  H   H9        1.0  0.17098925546843824  0.8951665567275751  0.32762195087810153  1.0000
  H   H10       1.0  0.8290107456620702  0.10483344457843745  0.6723780494960301  1.0000
  H   H11       1.0  0.6733229388118346  0.8500750982648636  0.12468335825623239  1.0000
  H   H12       1.0  0.32667706058378587  0.1499249015720502  0.8753166421079799  1.0000
  H   H13       1.0  0.4451024811708533  0.8092469856886066  0.23452898337325975  1.0000
  H   H14       1.0  0.5548975182247672  0.190753014148307  0.7654710169909525  1.0000
  H   H15       1.0  0.01008478084930934  0.6150444990047961  0.5865327630173551  1.0000
  H   H16       1.0  0.9899152197177836  0.384955500479323  0.4134672366801642  1.0000
  H   H17       1.0  0.7205480008059794  0.5388722043402636  0.6643607881179248  1.0000
  H   H18       1.0  0.2794519997611135  0.46112779514385543  0.33563921157959453  1.0000
  H   H19       1.0  0.7879258782518155  0.5495358795453334  0.8278207935734277  1.0000
  H   H20       1.0  0.2120741211438048  0.45046412029158023  0.1721792067907845  1.0000
  H   H21       1.0  0.5778102058743542  0.7603359821198659  0.7909727150066973  1.0000
  H   H22       1.0  0.42218979469273893  0.2396640173642532  0.20902728469082216  1.0000
  H   H23       1.0  0.6618985872474273  0.781776799298132  0.9533003906865657  1.0000
  H   H24       1.0  0.3381014133196657  0.218223200185987  0.04669960901095368  1.0000
  H   H25       1.0  0.391759761878313  0.7101517480455131  0.04101268694395476  1.0000
  H   H26       1.0  0.6082402372597423  0.28984825144698667  0.9589873127541195  1.0000
  H   H27       1.0  0.039611458231101036  0.6247338915188165  0.967939213664812  1.0000
  H   H28       1.0  0.9603885412128045  0.37526610945116246  0.03206078604373654  1.0000
  C   C1        1.0  0.43799529503860285  0.741758592108901  0.5309837071241139  1.0000
  C   C2        1.0  0.5620047040994525  0.2582414073835987  0.4690162925739604  1.0000
  C   C3        1.0  0.6124917518252658  0.787236290038231  0.4833128101550001  1.0000
  C   C4        1.0  0.387508248741827  0.21276370944588807  0.5166871895425192  1.0000
  C   C5        1.0  0.6800246692939447  0.8245910624316705  0.3410135863238778  1.0000
  C   C6        1.0  0.31997533153071345  0.17540893739686247  0.6589864140397795  1.0000
  C   C7        1.0  0.8845653049910724  0.851427191851402  0.3678783497243403  1.0000
  C   C8        1.0  0.11543469414698285  0.14857280764109765  0.632121649973734  1.0000
  C   C9        1.0  0.012178556603250764  0.8763590597225832  0.3068865479419594  1.0000
  C   C10       1.0  0.9878214442696925  0.1236409412390152  0.6931134517660342  1.0000
  C   C11       1.0  0.9343773559278951  0.8734140201855309  0.2197317300890168  1.0000
  C   C12       1.0  0.06562264346772553  0.12658597965138285  0.7802682702751955  1.0000
  C   C13       1.0  0.7308825296486546  0.8487440848288709  0.1926767303943486  1.0000
  C   C14       1.0  0.26911747148185367  0.1512559164771416  0.807323269979783  1.0000
  C   C15       1.0  0.6040741185024553  0.8252609078068582  0.2534358663546964  1.0000
  C   C16       1.0  0.39592588206463764  0.1747390916772608  0.746564133342823  1.0000
  C   C17       1.0  0.03162852847223422  0.619789754146161  0.6574714081965204  1.0000
  C   C18       1.0  0.9683714706658211  0.3802102453463388  0.342528591501554  1.0000
  C   C19       1.0  0.8703604736985833  0.5774705696112332  0.7018738365069467  1.0000
  C   C20       1.0  0.12963952600288756  0.4225294317031599  0.2981261638677398  1.0000
  C   C21       1.0  0.9084999670485946  0.5841197855037291  0.7912771323713016  1.0000
  C   C22       1.0  0.09150003239531102  0.41588021546625  0.2087228673372469  1.0000
  C   C23       1.0  0.10686731239590912  0.6347785409783945  0.8370444153956987  1.0000
  C   C24       1.0  0.8931326887345993  0.365221460327618  0.1629555849784329  1.0000
  C   C25       1.0  0.261898308100887  0.6735908345487378  0.7870925045033493  1.0000
  C   C26       1.0  0.7381016912947335  0.3264091652881759  0.21290749586086286  1.0000
  C   C27       1.0  0.46224678409025405  0.7263398438667155  0.8300325241407636  1.0000
  C   C28       1.0  0.5377532164768389  0.27366015561740353  0.16996747555675581  1.0000
  C   C29       1.0  0.5071811160043649  0.7387180292391325  0.9200586346149843  1.0000
  C   C30       1.0  0.4928188834395408  0.26128197173084655  0.07994136509356431  1.0000
  C   C31       1.0  0.3543091218321698  0.6993860310047221  0.9699350359064084  1.0000
  C   C32       1.0  0.6456908789924883  0.300613968823811  0.030064964457248995  1.0000
  C   C33       1.0  0.15794095537333805  0.6497254521789517  0.9293308641557885  1.0000
  C   C34       1.0  0.8420590451937549  0.3502745473051673  0.07066913554173089  1.0000
  N   N1        1.0  0.21859730136867486  0.6639701534923854  0.6981094471211619  1.0000
  N   N2        1.0  0.7814026980269455  0.33602984634452837  0.3018905532430504  1.0000
  O   O1        1.0  0.49917251837328924  0.7274655146596218  0.6121357781049752  1.0000
  O   O2        1.0  0.5008274821938036  0.2725344848244971  0.3878642215925442  1.0000
  O   O3        1.0  0.2632365575978158  0.720602236247645  0.49685380068207186  1.0000
  O   O4        1.0  0.7367634417978046  0.2793977635892688  0.5031461996821404  1.0000
  O   O5        1.0  0.5419758016328473  0.7954680094809928  0.39474625432908794  1.0000
  O   O6        1.0  0.4580241989342456  0.20453199000312616  0.6052537453684315  1.0000
  Cl  Cl1       1.0  0.0906748071442445  0.8958804352632772  0.14208240572885478  1.0000
  Cl  Cl2       1.0  0.9093251934228483  0.10411956422084166  0.8579175939686645  1.0000
