data_image0
_chemical_formula_structural       H120C144N8O24
_chemical_formula_sum              "H120 C144 N8 O24"
_cell_length_a       26.647584917134097
_cell_length_b       7.365536269836534
_cell_length_c       19.370049545604463
_cell_angle_alpha    90.0
_cell_angle_beta     131.25460500910233
_cell_angle_gamma    90.0

_space_group_name_H-M_alt    "P 1"
_space_group_IT_number       1

loop_
  _space_group_symop_operation_xyz
  'x, y, z'

loop_
  _atom_site_type_symbol
  _atom_site_label
  _atom_site_symmetry_multiplicity
  _atom_site_fract_x
  _atom_site_fract_y
  _atom_site_fract_z
  _atom_site_occupancy
  H   H1        1.0  0.9830869736716352  0.13299364148290863  0.9643904146545149  1.0000
  H   H2        1.0  0.016913026576466036  0.13299364148290863  0.5356095857950659  1.0000
  H   H3        1.0  0.4830869735217251  0.6329936408151681  0.964390414372471  1.0000
  H   H4        1.0  0.5169130262272078  0.6329936408151681  0.5356095856250259  1.0000
  H   H5        1.0  0.01691302642755403  0.8670063585392849  0.0356095858548428  1.0000
  H   H6        1.0  0.9830869735220099  0.8670063585392849  0.46439041419738425  1.0000
  H   H7        1.0  0.5169130265767509  0.3670063592070253  0.03560958561997923  1.0000
  H   H8        1.0  0.4830869738712681  0.3670063592070253  0.4643904143674242  1.0000
  H   H9        1.0  0.14128436479888806  0.6068604275706325  0.43442790036780654  1.0000
  H   H10       1.0  0.8587156351506757  0.6068604275706325  0.06557209968442036  1.0000
  H   H11       1.0  0.6412843649487981  0.10686042823837295  0.4344279006498504  1.0000
  H   H12       1.0  0.35871563500076575  0.10686042823837295  0.06557209940237661  1.0000
  H   H13       1.0  0.8587156352995878  0.393139572451561  0.5655720996246436  1.0000
  H   H14       1.0  0.14128436494780006  0.393139572451561  0.9344279003080297  1.0000
  H   H15       1.0  0.35871563515039107  0.8931395717838205  0.5655720998595073  1.0000
  H   H16       1.0  0.6412843650977101  0.8931395717838205  0.9344279005900736  1.0000
  H   H17       1.0  0.07397662885610697  0.08631783711440606  0.26380729294605276  1.0000
  H   H18       1.0  0.926023371591912  0.08631783711440606  0.23619270704135067  1.0000
  H   H19       1.0  0.5739766285068488  0.58631783780434  0.2638072927760127  1.0000
  H   H20       1.0  0.4260233714427151  0.58631783780434  0.2361927072762143  1.0000
  H   H21       1.0  0.926023371242369  0.9136821629077874  0.7361927070463974  1.0000
  H   H22       1.0  0.07397662850656399  0.9136821629077874  0.7638072929510995  1.0000
  H   H23       1.0  0.42602337159162723  0.4136821622178534  0.7361927072164375  1.0000
  H   H24       1.0  0.5739766286564741  0.4136821622178534  0.7638072932331436  1.0000
  H   H25       1.0  0.11413486005315096  0.30649860883111263  0.3879617921755793  1.0000
  H   H26       1.0  0.8858651398956996  0.30649860883111263  0.11203820735974025  1.0000
  H   H27       1.0  0.6141348602030611  0.806498608163372  0.38796179245762313  1.0000
  H   H28       1.0  0.3858651397465028  0.806498608163372  0.11203820759460383  1.0000
  H   H29       1.0  0.8858651400453251  0.6935013911910808  0.6120382078168709  1.0000
  H   H30       1.0  0.11413486020277627  0.6935013911910808  0.8879617926327099  1.0000
  H   H31       1.0  0.3858651398954149  0.1935013918588213  0.6120382075348271  1.0000
  H   H32       1.0  0.614134860351973  0.1935013918588213  0.8879617923978463  1.0000
  H   H33       1.0  0.05282993460244916  0.7502297046081394  0.2013692469947447  1.0000
  H   H34       1.0  0.9471700653464014  0.7502297046081394  0.29863075254057486  1.0000
  H   H35       1.0  0.5528299342531909  0.25022970527587995  0.20136924682470467  1.0000
  H   H36       1.0  0.44717006569637296  0.25022970527587995  0.29863075322752236  1.0000
  H   H37       1.0  0.9471700654960269  0.24977029541405396  0.7986307529977055  1.0000
  H   H38       1.0  0.05282993425290618  0.24977029541405396  0.7013692469997915  1.0000
  H   H39       1.0  0.44717006534611664  0.7497702947463134  0.7986307527156615  1.0000
  H   H40       1.0  0.552829934402103  0.7497702947463134  0.701369246764928  1.0000
  H   H41       1.0  0.012838025102790515  0.5302374473388719  0.07760765894076559  1.0000
  H   H42       1.0  0.98716197484606  0.5302374473388719  0.4223923405945539  1.0000
  H   H43       1.0  0.5128380252527006  0.030237448006612398  0.0776076592228094  1.0000
  H   H44       1.0  0.48716197469686334  0.030237448006612398  0.4223923408294175  1.0000
  H   H45       1.0  0.9871619744965171  0.4697625526833215  0.9223923405996008  1.0000
  H   H46       1.0  0.012838025252415852  0.4697625526833215  0.5776076593978963  1.0000
  H   H47       1.0  0.48716197484577534  0.969762552015581  0.9223923407696408  1.0000
  H   H48       1.0  0.5128380254016126  0.969762552015581  0.5776076591630326  1.0000
  H   H49       1.0  0.22516916448496607  0.13674396039901016  0.915786790478383  1.0000
  H   H50       1.0  0.7748308352632535  0.13674396039901016  0.5842132090022064  1.0000
  H   H51       1.0  0.7251691646348762  0.6367439610889442  0.9157867907604268  1.0000
  H   H52       1.0  0.27483083511405676  0.6367439610889442  0.5842132092370701  1.0000
  H   H53       1.0  0.7748308351143416  0.8632560396231833  0.0842132090619834  1.0000
  H   H54       1.0  0.22516916483522237  0.8632560396231833  0.4157867909902437  1.0000
  H   H55       1.0  0.2748308354635997  0.36325603893324937  0.08421320923202333  1.0000
  H   H56       1.0  0.7251691644852508  0.36325603893324937  0.41578679030329607  1.0000
  H   H57       1.0  0.16874911500752027  0.11690329372570042  0.7506979528088112  1.0000
  H   H58       1.0  0.8312508847414127  0.11690329372570042  0.7493020471886858  1.0000
  H   H59       1.0  0.6687491151574304  0.6169032944156343  0.7506979530908552  1.0000
  H   H60       1.0  0.3312508845915026  0.6169032944156343  0.7493020469066419  1.0000
  H   H61       1.0  0.8312508845917874  0.8830967062964931  0.2493020467315551  1.0000
  H   H62       1.0  0.16874911535777656  0.8830967062964931  0.25069795332067196  1.0000
  H   H63       1.0  0.33125088494175886  0.3830967056065591  0.2493020474185026  1.0000
  H   H64       1.0  0.668749115007805  0.3830967056065591  0.25069795263372446  1.0000
  H   H65       1.0  0.355222642975408  0.9223779234951454  0.8351922924329445  1.0000
  H   H66       1.0  0.644777356773525  0.9223779234951454  0.6648077075645525  1.0000
  H   H67       1.0  0.855222643125318  0.4223779228052114  0.8351922927149883  1.0000
  H   H68       1.0  0.14477735662361488  0.4223779228052114  0.6648077072825087  1.0000
  H   H69       1.0  0.6447773566238996  0.07762207652704813  0.1648077071074218  1.0000
  H   H70       1.0  0.3552226433256643  0.07762207652704813  0.3351922929448051  1.0000
  H   H71       1.0  0.14477735697387117  0.5776220772169821  0.16480770779436943  1.0000
  H   H72       1.0  0.8552226429756927  0.5776220772169821  0.3351922922578575  1.0000
  H   H73       1.0  0.4025398589845878  0.9396308614136522  0.9963480540645875  1.0000
  H   H74       1.0  0.5974601412628001  0.9396308614136522  0.5036519458680859  1.0000
  H   H75       1.0  0.9025398591344979  0.4396308607237182  0.9963480543466314  1.0000
  H   H76       1.0  0.09746014111289002  0.4396308607237182  0.503651945586042  1.0000
  H   H77       1.0  0.5974601411138881  0.0603691386085413  0.0036519459278626268  1.0000
  H   H78       1.0  0.40253985883567583  0.0603691386085413  0.4963480541243644  1.0000
  H   H79       1.0  0.09746014096397802  0.5603691392984752  0.00365194564581882  1.0000
  H   H80       1.0  0.9025398589855858  0.5603691392984752  0.4963480544064081  1.0000
  H   H81       1.0  0.1332258765158951  0.9158739014871099  0.6286306423190269  1.0000
  H   H82       1.0  0.8667741237322062  0.9158739014871099  0.8713693581305539  1.0000
  H   H83       1.0  0.6332258766650919  0.4158739021548504  0.6286306420841634  1.0000
  H   H84       1.0  0.36677412358229605  0.4158739021548504  0.8713693578485102  1.0000
  H   H85       1.0  0.8667741235825809  0.08412609853508357  0.3713693576734233  1.0000
  H   H86       1.0  0.13322587636626979  0.08412609853508357  0.12863064186189627  1.0000
  H   H87       1.0  0.36677412343338406  0.584126097867343  0.3713693579082869  1.0000
  H   H88       1.0  0.6332258765161799  0.584126097867343  0.1286306421439401  1.0000
  H   H89       1.0  0.08491161979600821  0.9087968173359573  0.46652495943073413  1.0000
  H   H90       1.0  0.9150883801535558  0.9087968173359573  0.03347504062149294  1.0000
  H   H91       1.0  0.58491161944675  0.4087968180036977  0.4665249592606941  1.0000
  H   H92       1.0  0.4150883805028139  0.4087968180036977  0.033475040791532976  1.0000
  H   H93       1.0  0.9150883803024676  0.09120318268623619  0.5334750405617161  1.0000
  H   H94       1.0  0.08491161944575192  0.09120318268623619  0.9665249589188732  1.0000
  H   H95       1.0  0.4150883801525576  0.5912031820184958  0.5334750402796723  1.0000
  H   H96       1.0  0.584911619595662  0.5912031820184958  0.9665249592009172  1.0000
  H   H97       1.0  0.15258647682102297  0.008400618465948199  0.42820949415073434  1.0000
  H   H98       1.0  0.8474135231285409  0.008400618465948199  0.07179050590149276  1.0000
  H   H99       1.0  0.6525864769702197  0.5084006191558821  0.4282094939158707  1.0000
  H   H100      1.0  0.3474135229793442  0.5084006191558821  0.07179050613635633  1.0000
  H   H101      1.0  0.847413522778998  0.9915993815562452  0.5717905059065396  1.0000
  H   H102      1.0  0.152586476969935  0.9915993815562452  0.9282094940909575  1.0000
  H   H103      1.0  0.3474135231282562  0.49159938086631133  0.5717905060765796  1.0000
  H   H104      1.0  0.652586477119845  0.49159938086631133  0.9282094943730013  1.0000
  H   H105      1.0  0.26895838286907936  0.11990785838864669  0.5518692355271968  1.0000
  H   H106      1.0  0.7310416168798536  0.11990785838864669  0.9481307644703002  1.0000
  H   H107      1.0  0.7689583830189893  0.6199078590785806  0.5518692358092406  1.0000
  H   H108      1.0  0.23104161722911182  0.6199078590785806  0.9481307646403403  1.0000
  H   H109      1.0  0.7310416172293966  0.8800921416335468  0.44813076446525346  1.0000
  H   H110      1.0  0.2689583827201673  0.8800921416335468  0.05186923558697355  1.0000
  H   H111      1.0  0.23104161707948645  0.3800921409436128  0.4481307641832095  1.0000
  H   H112      1.0  0.7689583828693641  0.3800921409436128  0.05186923535210993  1.0000
  H   H113      1.0  0.31740864283343734  0.12427173751739794  0.7131962622263335  1.0000
  H   H114      1.0  0.6825913569154957  0.12427173751739794  0.7868037377711636  1.0000
  H   H115      1.0  0.8174086429833474  0.6242717382073318  0.7131962625083772  1.0000
  H   H116      1.0  0.1825913567655855  0.6242717382073318  0.7868037374891197  1.0000
  H   H117      1.0  0.6825913567658703  0.8757282625047955  0.2868037373140329  1.0000
  H   H118      1.0  0.3174086431829803  0.8757282625047955  0.2131962622212866  1.0000
  H   H119      1.0  0.1825913571158418  0.37572826181486163  0.28680373800098047  1.0000
  H   H120      1.0  0.817408642833722  0.37572826181486163  0.21319626205124656  1.0000
  C   C1        1.0  0.04146844000238726  0.2931579481649775  0.16261540921859446  1.0000
  C   C2        1.0  0.9585315599471766  0.2931579481649775  0.33738459083363254  1.0000
  C   C3        1.0  0.5414684401522973  0.7931579474972371  0.16261540950063835  1.0000
  C   C4        1.0  0.45853155979726656  0.7931579474972371  0.3373845905515887  1.0000
  C   C5        1.0  0.9585315595969204  0.7068420518572159  0.8373845903217719  1.0000
  C   C6        1.0  0.04146844015129927  0.7068420518572159  0.6626154091588177  1.0000
  C   C7        1.0  0.45853155994617856  0.20684205252495644  0.8373845904918118  1.0000
  C   C8        1.0  0.5414684403012093  0.20684205252495644  0.6626154094408615  1.0000
  C   C9        1.0  0.06985599150022954  0.2319273855178385  0.2507600556817059  1.0000
  C   C10       1.0  0.9301440084493344  0.2319273855178385  0.24923994437052122  1.0000
  C   C11       1.0  0.5698559911502581  0.7319273862077724  0.2507600549947584  1.0000
  C   C12       1.0  0.43014400879930587  0.7319273862077724  0.24923994505746863  1.0000
  C   C13       1.0  0.9301440085989598  0.7680726145043549  0.7492399448276519  1.0000
  C   C14       1.0  0.06985599114997326  0.7680726145043549  0.7507600551698452  1.0000
  C   C15       1.0  0.4301440084490496  0.268072613814421  0.7492399445456079  1.0000
  C   C16       1.0  0.5698559912998834  0.268072613814421  0.7507600554518891  1.0000
  C   C17       1.0  0.09240865433449351  0.3545112988844125  0.32007156134056947  1.0000
  C   C18       1.0  0.9075913456150703  0.3545112988844125  0.17992843871165765  1.0000
  C   C19       1.0  0.5924086544836903  0.854511298216672  0.32007156110570584  1.0000
  C   C20       1.0  0.4075913454658736  0.854511298216672  0.17992843894652116  1.0000
  C   C21       1.0  0.9075913457646957  0.6454887011377809  0.6799284391687883  1.0000
  C   C22       1.0  0.09240865448340552  0.6454887011377809  0.8200715612807926  1.0000
  C   C23       1.0  0.4075913456147856  0.14548870180552143  0.6799284388867443  1.0000
  C   C24       1.0  0.5924086541341472  0.14548870180552143  0.8200715611107526  1.0000
  C   C25       1.0  0.08835002220601891  0.543037890720857  0.30357260939305736  1.0000
  C   C26       1.0  0.9116499777435451  0.543037890720857  0.19642739065916973  1.0000
  C   C27       1.0  0.588350022355929  0.04303789138859746  0.30357260967510125  1.0000
  C   C28       1.0  0.411649977593635  0.04303789138859746  0.1964273903771258  1.0000
  C   C29       1.0  0.9116499778924569  0.45696210930133646  0.6964273905993928  1.0000
  C   C30       1.0  0.08835002235564424  0.45696210930133646  0.8035726098501881  1.0000
  C   C31       1.0  0.41164997774254697  0.956962108633596  0.696427390317349  1.0000
  C   C32       1.0  0.5883500225048409  0.956962108633596  0.8035726096153243  1.0000
  C   C33       1.0  0.05745849851629948  0.6048096753311984  0.21448477811051936  1.0000
  C   C34       1.0  0.9425415014332644  0.6048096753311984  0.28551522194170764  1.0000
  C   C35       1.0  0.5574584986662096  0.1048096759989389  0.2144847783925633  1.0000
  C   C36       1.0  0.44254150128335434  0.1048096759989389  0.2855152216596638  1.0000
  C   C37       1.0  0.9425415015821765  0.395190324690995  0.7855152218819308  1.0000
  C   C38       1.0  0.05745849866521147  0.395190324690995  0.7144847780507426  1.0000
  C   C39       1.0  0.4425415014322664  0.8951903240232546  0.785515221599887  1.0000
  C   C40       1.0  0.5574584988151217  0.8951903240232546  0.7144847783327865  1.0000
  C   C41       1.0  0.03468882415250834  0.48147293287019616  0.14545894419999703  1.0000
  C   C42       1.0  0.9653111762962239  0.48147293287019616  0.3545410563043139  1.0000
  C   C43       1.0  0.5346888238025368  0.9814729322024557  0.14545894351304947  1.0000
  C   C44       1.0  0.4653111761463138  0.9814729322024557  0.35454105602227004  1.0000
  C   C45       1.0  0.9653111759459675  0.5185270671519974  0.8545410557924533  1.0000
  C   C46       1.0  0.03468882380225205  0.5185270671519974  0.6454589436881364  1.0000
  C   C47       1.0  0.4653111762959391  0.018527067819737796  0.8545410564794007  1.0000
  C   C48       1.0  0.5346888239521621  0.018527067819737796  0.6454589439701801  1.0000
  C   C49       1.0  0.02173284812024184  0.16295135968784483  0.09176727866546028  1.0000
  C   C50       1.0  0.9782671518286089  0.16295135968784483  0.4082327208698593  1.0000
  C   C51       1.0  0.521732848270152  0.6629513590201044  0.09176727894750412  1.0000
  C   C52       1.0  0.478267151679412  0.6629513590201044  0.4082327211047228  1.0000
  C   C53       1.0  0.9782671519782342  0.8370486403343487  0.9082327213269901  1.0000
  C   C54       1.0  0.021732848269867173  0.8370486403343487  0.591767279122591  1.0000
  C   C55       1.0  0.47826715182832397  0.3370486410020891  0.9082327210449461  1.0000
  C   C56       1.0  0.521732848419064  0.3370486410020891  0.5917672788877273  1.0000
  C   C57       1.0  0.25196372910500003  0.08578431316502401  0.8950627787734217  1.0000
  C   C58       1.0  0.7480362711423879  0.08578431316502401  0.6049372211592517  1.0000
  C   C59       1.0  0.7519637287557418  0.5857843138549579  0.8950627786033816  1.0000
  C   C60       1.0  0.2480362709931911  0.5857843138549579  0.6049372213941153  1.0000
  C   C61       1.0  0.7480362709934758  0.9142156868571695  0.10493722121902856  1.0000
  C   C62       1.0  0.25196372895608804  0.9142156868571695  0.39506277883319846  1.0000
  C   C63       1.0  0.24803627084356572  0.41421568616723553  0.10493722093698465  1.0000
  C   C64       1.0  0.7519637291052849  0.41421568616723553  0.3950627785983349  1.0000
  C   C65       1.0  0.22078354747871828  0.07590564481904426  0.8027844475833615  1.0000
  C   C66       1.0  0.779216452769383  0.07590564481904426  0.6972155528662194  1.0000
  C   C67       1.0  0.7207835471287468  0.5759056455089782  0.8027844468964139  1.0000
  C   C68       1.0  0.27921645261947287  0.5759056455089782  0.6972155525841756  1.0000
  C   C69       1.0  0.779216452620471  0.9240943552031491  0.19721555292599618  1.0000
  C   C70       1.0  0.22078354732909297  0.9240943552031491  0.30278444712623087  1.0000
  C   C71       1.0  0.27921645247056087  0.4240943545132153  0.19721555264395232  1.0000
  C   C72       1.0  0.7207835474790031  0.4240943545132153  0.30278444740827465  1.0000
  C   C73       1.0  0.25767378044472955  0.02122918200000531  0.7782288780229983  1.0000
  C   C74       1.0  0.7423262198026583  0.02122918200000531  0.7217711219096752  1.0000
  C   C75       1.0  0.7576737800954714  0.5212291826899392  0.7782288778529582  1.0000
  C   C76       1.0  0.24232621965274828  0.5212291826899392  0.7217711216276314  1.0000
  C   C77       1.0  0.7423262196537463  0.9787708180221881  0.22177112196945195  1.0000
  C   C78       1.0  0.25767378029581756  0.9787708180221881  0.2782288780827751  1.0000
  C   C79       1.0  0.24232621950383623  0.47877081733225424  0.22177112168740806  1.0000
  C   C80       1.0  0.7576737804457278  0.47877081733225424  0.2782288783648189  1.0000
  C   C81       1.0  0.32431160536175435  0.9701130533104524  0.8496561981647935  1.0000
  C   C82       1.0  0.6756883943864653  0.9701130533104524  0.6503438013157959  1.0000
  C   C83       1.0  0.8243116055116644  0.4701130539781929  0.8496561984468375  1.0000
  C   C84       1.0  0.1756883947364368  0.4701130539781929  0.6503438020027433  1.0000
  C   C85       1.0  0.6756883947367216  0.029886946711740994  0.15034380182765655  1.0000
  C   C86       1.0  0.3243116057120106  0.029886946711740994  0.34965619867665426  1.0000
  C   C87       1.0  0.17568839458681146  0.5298869460440006  0.15034380154561275  1.0000
  C   C88       1.0  0.8243116053627523  0.5298869460440006  0.3496561985066142  1.0000
  C   C89       1.0  0.35099861483950523  0.9794703896231185  0.9398640467942058  1.0000
  C   C90       1.0  0.6490013849087144  0.9794703896231185  0.5601359526863837  1.0000
  C   C91       1.0  0.8509986149894153  0.4794703902908589  0.9398640470762495  1.0000
  C   C92       1.0  0.14900138525868592  0.4794703902908589  0.5601359533733312  1.0000
  C   C93       1.0  0.6490013852589707  0.020529610399074978  0.060135953198244406  1.0000
  C   C94       1.0  0.3509986151897615  0.020529610399074978  0.43986404730606654  1.0000
  C   C95       1.0  0.1490013851090606  0.5205296097313344  0.06013595291620053  1.0000
  C   C96       1.0  0.85099861483979  0.5205296097313344  0.439864046619119  1.0000
  C   C97       1.0  0.2284752190387337  0.019969264234342615  0.681932420326568  1.0000
  C   C98       1.0  0.7715247807094859  0.019969264234342615  0.8180675791540215  1.0000
  C   C99       1.0  0.7284752191886438  0.5199692635666021  0.6819324206086119  1.0000
  C   C100      1.0  0.27152478056028917  0.5199692635666021  0.8180675793888852  1.0000
  C   C101      1.0  0.7715247805605738  0.9800307357878508  0.3180675792137983  1.0000
  C   C102      1.0  0.22847521938899001  0.9800307357878508  0.18193242083842873  1.0000
  C   C103      1.0  0.2715247809098321  0.4800307364555913  0.31806757938383834  1.0000
  C   C104      1.0  0.7284752190390185  0.4800307364555913  0.1819324201514812  1.0000
  C   C105      1.0  0.1625190354924169  0.9624513423456849  0.6113670948364803  1.0000
  C   C106      1.0  0.8374809647556845  0.9624513423456849  0.8886329056131006  1.0000
  C   C107      1.0  0.662519035642327  0.46245134301342533  0.6113670951185242  1.0000
  C   C108      1.0  0.33748096460577426  0.46245134301342533  0.8886329053310568  1.0000
  C   C109      1.0  0.8374809646060589  0.03754865767650859  0.38863290515596993  1.0000
  C   C110      1.0  0.1625190353435049  0.03754865767650859  0.1113670948962571  1.0000
  C   C111      1.0  0.33748096445686226  0.5375486570087681  0.38863290539083356  1.0000
  C   C112      1.0  0.6625190354927016  0.5375486570087681  0.11136709466139338  1.0000
  C   C113      1.0  0.13542052730408569  0.9587912259587218  0.5205811197738425  1.0000
  C   C114      1.0  0.8645794729440156  0.9587912259587218  0.9794188806757383  1.0000
  C   C115      1.0  0.6354205274532825  0.4587912252687878  0.5205811195389788  1.0000
  C   C116      1.0  0.36457947279410546  0.4587912252687878  0.9794188803936946  1.0000
  C   C117      1.0  0.8645794727951035  0.041208774063471725  0.4794188807355153  1.0000
  C   C118      1.0  0.13542052715446037  0.041208774063471725  0.02058111931671172  1.0000
  C   C119      1.0  0.3645794726451934  0.5412087747534057  0.4794188804534714  1.0000
  C   C120      1.0  0.6354205273043705  0.5412087747534057  0.02058111959875555  1.0000
  C   C121      1.0  0.17364084941062877  0.015381442144811318  0.49898253229058004  1.0000
  C   C122      1.0  0.826359150538935  0.015381442144811318  0.001017467761646976  1.0000
  C   C123      1.0  0.6736408495605389  0.5153814428347452  0.49898253257262387  1.0000
  C   C124      1.0  0.326359150389025  0.5153814428347452  0.0010174674796031345  1.0000
  C   C125      1.0  0.826359150188679  0.9846185578773822  0.5010174672497864  1.0000
  C   C126      1.0  0.1736408495602541  0.9846185578773822  0.9989825327477106  1.0000
  C   C127      1.0  0.326359150537937  0.4846185571874482  0.5010174674198262  1.0000
  C   C128      1.0  0.6736408497094508  0.4846185571874482  0.9989825325128471  1.0000
  C   C129      1.0  0.23899183546568242  0.07512306093257214  0.5684088207158143  1.0000
  C   C130      1.0  0.7610081647824188  0.07512306093257214  0.9315911797337667  1.0000
  C   C131      1.0  0.7389918351164243  0.5751230602648316  0.5684088205457744  1.0000
  C   C132      1.0  0.2610081646325088  0.5751230602648316  0.9315911794517228  1.0000
  C   C133      1.0  0.7610081646327935  0.9248769390896212  0.4315911792766358  1.0000
  C   C134      1.0  0.2389918353167704  0.9248769390896212  0.0684088207755911  1.0000
  C   C135      1.0  0.261008164982765  0.4248769397573618  0.4315911799635834  1.0000
  C   C136      1.0  0.7389918354659671  0.4248769397573618  0.06840882054072735  1.0000
  C   C137      1.0  0.26647237518832156  0.07639099033484054  0.6594162004658228  1.0000
  C   C138      1.0  0.7335276250597796  0.07639099033484054  0.8405837999837581  1.0000
  C   C139      1.0  0.7664723748383501  0.5763909896671001  0.6594161997788753  1.0000
  C   C140      1.0  0.23352762490986959  0.5763909896671001  0.8405837997017143  1.0000
  C   C141      1.0  0.7335276249101543  0.9236090096873529  0.3405837995266274  1.0000
  C   C142      1.0  0.26647237503869625  0.9236090096873529  0.15941620000869214  1.0000
  C   C143      1.0  0.2335276247609576  0.42360901035509335  0.340583799761491  1.0000
  C   C144      1.0  0.7664723751886063  0.42360901035509335  0.15941620029073597  1.0000
  N   N1        1.0  0.31617011751722807  0.039306532395423976  0.963031389259266  1.0000
  N   N2        1.0  0.6838298822309916  0.039306532395423976  0.5369686102213233  1.0000
  N   N3        1.0  0.8161701176671382  0.5393065317276835  0.9630313895413102  1.0000
  N   N4        1.0  0.18382988208179477  0.5393065317276835  0.536968610456187  1.0000
  N   N5        1.0  0.6838298820820795  0.9606934676267694  0.0369686102811002  1.0000
  N   N6        1.0  0.31617011786748433  0.9606934676267694  0.4630313897711269  1.0000
  N   N7        1.0  0.18382988243133774  0.46069346829450997  0.03696861045114015  1.0000
  N   N8        1.0  0.8161701175175129  0.46069346829450997  0.4630313890841794  1.0000
  O   O1        1.0  0.9929992103477627  0.23289493624855512  0.010034738286916122  1.0000
  O   O2        1.0  0.007000789601801127  0.23289493624855512  0.48996526176531086  1.0000
  O   O3        1.0  0.49299921069702096  0.7328949355808146  0.010034738456956165  1.0000
  O   O4        1.0  0.507000789252543  0.7328949355808146  0.48996526159527093  1.0000
  O   O5        1.0  0.007000789252258158  0.7671050637736383  0.9899652617703577  1.0000
  O   O6        1.0  0.9929992104966748  0.7671050637736383  0.5100347382271392  1.0000
  O   O7        1.0  0.5070007894014549  0.2671050644413788  0.9899652615354941  1.0000
  O   O8        1.0  0.4929992103467647  0.2671050644413788  0.5100347379450954  1.0000
  O   O9        1.0  0.03248502241351704  0.9952031911130189  0.10768306645112936  1.0000
  O   O10       1.0  0.9675149775360469  0.9952031911130189  0.39231693360109765  1.0000
  O   O11       1.0  0.5324850225634271  0.495203190423085  0.10768306673317317  1.0000
  O   O12       1.0  0.4675149773861367  0.495203190423085  0.39231693331905376  1.0000
  O   O13       1.0  0.9675149776849588  0.004796808909174528  0.8923169335413209  1.0000
  O   O14       1.0  0.032485022563142375  0.004796808909174528  0.60768306690826  1.0000
  O   O15       1.0  0.4675149775350488  0.5047968095991084  0.892316933259277  1.0000
  O   O16       1.0  0.5324850222131708  0.5047968095991084  0.6076830662213125  1.0000
  O   O17       1.0  0.11349563037497196  0.6666820432491034  0.3696098097237376  1.0000
  O   O18       1.0  0.8865043695745918  0.6666820432491034  0.13039019032848934  1.0000
  O   O19       1.0  0.6134956305248821  0.16668204255916955  0.3696098100057814  1.0000
  O   O20       1.0  0.3865043699238501  0.16668204255916955  0.13039019049852943  1.0000
  O   O21       1.0  0.8865043697235039  0.33331795677308995  0.6303901902687127  1.0000
  O   O22       1.0  0.11349563052388394  0.33331795677308995  0.8696098096639606  1.0000
  O   O23       1.0  0.38650436957430717  0.833317957463024  0.6303901905035763  1.0000
  O   O24       1.0  0.6134956301746257  0.833317957463024  0.8696098094939209  1.0000
