data_image0
_chemical_formula_structural       H60C52N8O12
_chemical_formula_sum              "H60 C52 N8 O12"
_cell_length_a       11.63992427873099
_cell_length_b       8.597463360144603
_cell_length_c       12.536182745478582
_cell_angle_alpha    90.0
_cell_angle_beta     95.05307650963806
_cell_angle_gamma    90.0

_space_group_name_H-M_alt    "P 1"
_space_group_IT_number       1

loop_
  _space_group_symop_operation_xyz
  'x, y, z'

loop_
  _atom_site_type_symbol
  _atom_site_label
  _atom_site_symmetry_multiplicity
  _atom_site_fract_x
  _atom_site_fract_y
  _atom_site_fract_z
  _atom_site_occupancy
  H   H1        1.0  0.5265628801261498  0.42654926765960877  0.5723629457539238  1.0000
  H   H2        1.0  0.4734371202595954  0.9265492676511992  0.9276370546180819  1.0000
  H   H3        1.0  0.4734371199682448  0.5734507323235719  0.4276370547223296  1.0000
  H   H4        1.0  0.5265628798347992  0.07345073233198156  0.07236294585817155  1.0000
  H   H5        1.0  0.9806716282266358  0.007473742813242913  0.23568696969734595  1.0000
  H   H6        1.0  0.019328371574996877  0.5074737428048333  0.2643130300853498  1.0000
  H   H7        1.0  0.01932837186634753  0.9925262571699378  0.764313029981102  1.0000
  H   H8        1.0  0.9806716285179864  0.4925262571783474  0.7356869695930981  1.0000
  H   H9        1.0  0.7450075277837853  0.156954981193116  0.5691362927523471  1.0000
  H   H10       1.0  0.25499247260195995  0.6569549811847063  0.9308637076196584  1.0000
  H   H11       1.0  0.254992472309198  0.8430450187900648  0.4308637069261008  1.0000
  H   H12       1.0  0.7450075274924346  0.3430450187984743  0.06913629285659492  1.0000
  H   H13       1.0  0.9072450956914654  0.003746881917442471  0.5097963981582627  1.0000
  H   H14       1.0  0.09275490469427991  0.5037468819090328  0.9902036022137427  1.0000
  H   H15       1.0  0.09275490440292926  0.9962531180657384  0.49020360231799054  1.0000
  H   H16       1.0  0.9072450954001147  0.49625311807414785  0.009796398262510593  1.0000
  H   H17       1.0  0.8502997293201258  0.2076203288373162  0.19486754791818228  1.0000
  H   H18       1.0  0.14970027048150697  0.7076203288289065  0.30513245186451343  1.0000
  H   H19       1.0  0.14970027077285764  0.7923796711458645  0.8051324517602656  1.0000
  H   H20       1.0  0.8502997296114763  0.29237967115427416  0.6948675478139346  1.0000
  H   H21       1.0  0.6901766275179044  0.36563744540891274  0.25694891786418506  1.0000
  H   H22       1.0  0.3098233722837283  0.865637445400503  0.24305108191851071  1.0000
  H   H23       1.0  0.30982337171402724  0.6343625545742679  0.7430510825428401  1.0000
  H   H24       1.0  0.6901766278092551  0.1343625545826776  0.7569489177599373  1.0000
  H   H25       1.0  0.848516426194571  0.8711776504592192  0.7723815865271942  1.0000
  H   H26       1.0  0.15148357332871135  0.3711776504676289  0.727618413775583  1.0000
  H   H27       1.0  0.15148357389841238  0.12882234952396143  0.2276184131512537  1.0000
  H   H28       1.0  0.8485164259032205  0.6288223495155518  0.27238158663144213  1.0000
  H   H29       1.0  0.8409327627505974  0.7190251102036714  0.8675937193084466  1.0000
  H   H30       1.0  0.1590672376351479  0.21902511021208101  0.6324062810635588  1.0000
  H   H31       1.0  0.159067237342386  0.28097488977950935  0.13240628037000135  1.0000
  H   H32       1.0  0.8409327624592468  0.7809748897710996  0.3675937194126944  1.0000
  H   H33       1.0  0.7454908548600679  0.8794646610593786  0.868576981462723  1.0000
  H   H34       1.0  0.254509145524266  0.3794646610677883  0.6314230181114772  1.0000
  H   H35       1.0  0.25450914523291535  0.12053533892380208  0.13142301821572502  1.0000
  H   H36       1.0  0.7454908545687173  0.6205353389153924  0.3685769815669707  1.0000
  H   H37       1.0  0.18825751568515844  0.12510321299955032  0.8254562032980022  1.0000
  H   H38       1.0  0.8117424847005869  0.6251032129911407  0.6745437970740034  1.0000
  H   H39       1.0  0.811742484409236  0.8748967869836304  0.17454379717825108  1.0000
  H   H40       1.0  0.18825751539380783  0.37489678699204004  0.32545620340225007  1.0000
  H   H41       1.0  0.27038712898381767  0.12541497239737753  0.9517110213413946  1.0000
  H   H42       1.0  0.7296128705394647  0.6254149723889678  0.5482889789613826  1.0000
  H   H43       1.0  0.7296128711105769  0.8745850275858031  0.04828897913485867  1.0000
  H   H44       1.0  0.27038712955351873  0.37458502759421286  0.45171102071706537  1.0000
  H   H45       1.0  0.17743445778377562  0.2810377536705619  0.916746090330109  1.0000
  H   H46       1.0  0.8225655426019696  0.7810377536621521  0.5832539100418964  1.0000
  H   H47       1.0  0.822565542310619  0.7189622463126188  0.0832539101461443  1.0000
  H   H48       1.0  0.17743445749101375  0.2189622463210285  0.4167460896365515  1.0000
  H   H49       1.0  0.541069984384261  0.8185999026905568  0.28438005538872385  1.0000
  H   H50       1.0  0.458930015418783  0.3185999026989665  0.21561994519177727  1.0000
  H   H51       1.0  0.45893001571013353  0.18140009729262388  0.7156199450875295  1.0000
  H   H52       1.0  0.5410699838131487  0.6814000972842142  0.7843800552152479  1.0000
  H   H53       1.0  0.6071259484266447  0.8573976778048191  0.41661543050319233  1.0000
  H   H54       1.0  0.3928740522388621  0.35739767781322873  0.08338457014653704  1.0000
  H   H55       1.0  0.3928740516677499  0.14260232217836158  0.583384569973061  1.0000
  H   H56       1.0  0.6071259478555324  0.642602322169952  0.9166154303297164  1.0000
  H   H57       1.0  0.6434674819614902  0.9719755164922795  0.305104289035521  1.0000
  H   H58       1.0  0.35653251784155376  0.47197551650068914  0.19489571154498012  1.0000
  H   H59       1.0  0.3565325181329044  0.028024483490901152  0.6948957114407323  1.0000
  H   H60       1.0  0.6434674822528409  0.5280244834824915  0.8051042889312733  1.0000
  C   C1        1.0  0.7079309754700153  0.2733593028025968  0.41737288398819156  1.0000
  C   C2        1.0  0.29206902519408023  0.7733593027941872  0.08262711586373248  1.0000
  C   C3        1.0  0.29206902462296797  0.726640697180584  0.5826271156902564  1.0000
  C   C4        1.0  0.7079309748989031  0.22664069718899355  0.9173728838147155  1.0000
  C   C5        1.0  0.7695793114686311  0.16976610412393212  0.4878251281467386  1.0000
  C   C6        1.0  0.23042068833441287  0.6697661041155224  0.012174872433762482  1.0000
  C   C7        1.0  0.23042068862576348  0.8302338958592486  0.5121748723295146  1.0000
  C   C8        1.0  0.7695793117599817  0.3302338958676582  0.9878251280424908  1.0000
  C   C9        1.0  0.8591559162471338  0.08183192652631052  0.45411596510895214  1.0000
  C   C10       1.0  0.14084408355449896  0.5818319265179008  0.04588403467374365  1.0000
  C   C11       1.0  0.14084408384584962  0.9181680734568702  0.5458840345694959  1.0000
  C   C12       1.0  0.8591559165384843  0.41816807346527984  0.9541159650047043  1.0000
  C   C13       1.0  0.8891151378450709  0.09369633067984964  0.3478678476966415  1.0000
  C   C14       1.0  0.11088486195656179  0.59369633067144  0.1521321520860543  1.0000
  C   C15       1.0  0.11088486224932366  0.9063036693033311  0.6521321527796118  1.0000
  C   C16       1.0  0.8891151381364215  0.4063036693117407  0.8478678475923936  1.0000
  C   C17       1.0  0.8268468150899618  0.19665321376508468  0.27664426370519174  1.0000
  C   C18       1.0  0.1731531847116708  0.6966532137566751  0.22335573607750409  1.0000
  C   C19       1.0  0.17315318500302143  0.803346786218096  0.7233557359732563  1.0000
  C   C20       1.0  0.8268468145202609  0.3033467862265057  0.776644264329521  1.0000
  C   C21       1.0  0.7377182066660124  0.2849481849910199  0.3113992024742747  1.0000
  C   C22       1.0  0.26228179313562017  0.7849481849826102  0.18860079730842103  1.0000
  C   C23       1.0  0.2622817934269708  0.7150518149921609  0.6886007972041732  1.0000
  C   C24       1.0  0.7377182069587745  0.21505181500057044  0.8113992031678323  1.0000
  C   C25       1.0  0.6156834576028845  0.37116405692321885  0.4531910804477026  1.0000
  C   C26       1.0  0.38431654219874833  0.8711640569148091  0.04680891933499312  1.0000
  C   C27       1.0  0.384316542490099  0.6288359430599618  0.5468089192307454  1.0000
  C   C28       1.0  0.6156834570331833  0.1288359430683715  0.953191081072032  1.0000
  C   C29       1.0  0.9201473645046905  0.92690321740039  0.931341979577041  1.0000
  C   C30       1.0  0.07985263501718058  0.42690321740879955  0.5686580199279307  1.0000
  C   C31       1.0  0.07985263558829284  0.07309678258279079  0.06865802010140686  1.0000
  C   C32       1.0  0.9201473650758026  0.5730967825743811  0.43134197975051713  1.0000
  C   C33       1.0  0.08951926456498578  0.07250481495387444  0.9574848884494169  1.0000
  C   C34       1.0  0.9104807349568854  0.5725048149454648  0.542515111055555  1.0000
  C   C35       1.0  0.9104807355279976  0.9274951850293063  0.04251511122903111  1.0000
  C   C36       1.0  0.08951926427363513  0.4274951850377159  0.4574848885536647  1.0000
  C   C37       1.0  0.8340449435396742  0.8454300804229014  0.8555431660421419  1.0000
  C   C38       1.0  0.16595505684607095  0.34543008043131107  0.6444568343298636  1.0000
  C   C39       1.0  0.16595505655472031  0.1545699195602793  0.14445683443411136  1.0000
  C   C40       1.0  0.8340449432483237  0.6545699207150034  0.35554316614638976  1.0000
  C   C41       1.0  0.18624837915446954  0.15418574229058468  0.9101038979301762  1.0000
  C   C42       1.0  0.8137516212312756  0.6541857422821751  0.5898961024418292  1.0000
  C   C43       1.0  0.8137516209385138  0.845814257692596  0.08989610174827171  1.0000
  C   C44       1.0  0.18624837886311887  0.3458142577010057  0.41010389803442404  1.0000
  C   C45       1.0  0.482279619501984  0.017321644043330385  0.35976561126094037  1.0000
  C   C46       1.0  0.5177203802996487  0.5173216440349208  0.1402343885217555  1.0000
  C   C47       1.0  0.5177203805924107  0.9826783559398503  0.6402343892153131  1.0000
  C   C48       1.0  0.48227961979333456  0.48267835594826  0.8597656111566925  1.0000
  C   C49       1.0  0.5736408288982769  0.9097505964676128  0.34030987834491444  1.0000
  C   C50       1.0  0.4263591717658187  0.4097505964760225  0.15969012150700962  1.0000
  C   C51       1.0  0.4263591711947064  0.09024940351556783  0.6596901213335336  1.0000
  C   C52       1.0  0.5736408283271648  0.5902494035071583  0.8403098781714383  1.0000
  N   N1        1.0  0.009468998098982223  0.9993626596688967  0.8916628441352923  1.0000
  N   N2        1.0  0.9905310014243001  0.4993626596773063  0.6083371561674851  1.0000
  N   N3        1.0  0.990531001994001  0.0006373403142840307  0.10833715554315576  1.0000
  N   N4        1.0  0.009468997807631576  0.5006373403058744  0.39166284423954006  1.0000
  N   N5        1.0  0.4086778119363186  0.10400711146327703  0.3758149828672561  1.0000
  N   N6        1.0  0.5913221878667254  0.6040071114548674  0.12418501771324494  1.0000
  N   N7        1.0  0.591322188158076  0.8959928885199037  0.6241850176089971  1.0000
  N   N8        1.0  0.4086778122276692  0.3959928885283133  0.8758149827630084  1.0000
  O   O1        1.0  0.591645861225235  0.35021238403385974  0.5532112330172511  1.0000
  O   O2        1.0  0.408354139159099  0.8502123840254501  0.9467887665569491  1.0000
  O   O3        1.0  0.4083541388677484  0.649787615949321  0.44678876666119693  1.0000
  O   O4        1.0  0.5916458609338843  0.1497876159577306  0.05321123312149887  1.0000
  O   O5        1.0  0.5655669432165886  0.4710727595275127  0.3922801443797201  1.0000
  O   O6        1.0  0.43443305658504394  0.9710727595191031  0.10771985540297568  1.0000
  O   O7        1.0  0.43443305687780587  0.528927240455668  0.6077198560965332  1.0000
  O   O8        1.0  0.5655669426454765  0.028927240464077655  0.892280144206244  1.0000
  O   O9        1.0  0.9757765495807467  0.00463154401850574  0.31813410309697404  1.0000
  O   O10       1.0  0.024223451083349053  0.5046315440100961  0.18186589675494996  1.0000
  O   O11       1.0  0.0242234505122368  0.9953684559646749  0.6818658965814739  1.0000
  O   O12       1.0  0.9757765490110455  0.49536845597308454  0.8181341037213034  1.0000
