data_image0
_chemical_formula_structural       H64C88N16O28
_chemical_formula_sum              "H64 C88 N16 O28"
_cell_length_a       10.721551486200187
_cell_length_b       6.401551593040907
_cell_length_c       29.84352101847338
_cell_angle_alpha    90.0
_cell_angle_beta     96.50002275056521
_cell_angle_gamma    90.0

_space_group_name_H-M_alt    "P 1"
_space_group_IT_number       1

loop_
  _space_group_symop_operation_xyz
  'x, y, z'

loop_
  _atom_site_type_symbol
  _atom_site_label
  _atom_site_symmetry_multiplicity
  _atom_site_fract_x
  _atom_site_fract_y
  _atom_site_fract_z
  _atom_site_occupancy
  H   H1        1.0  0.1518863406554187  0.42268597552841897  0.3012947299095317  1.0000
  H   H2        1.0  0.8481136588487127  0.9226859760719663  0.19870527035686325  1.0000
  H   H3        1.0  0.8481136595995938  0.5773140239965545  0.6987052703785054  1.0000
  H   H4        1.0  0.15188634046756488  0.07731402345300716  0.8012947298931872  1.0000
  H   H5        1.0  0.03178941878121045  0.4736273926614943  0.22488912283834547  1.0000
  H   H6        1.0  0.9682105816611203  0.9736273932050417  0.27511087713093324  1.0000
  H   H7        1.0  0.9682105814732663  0.5263726068634792  0.7751108771145887  1.0000
  H   H8        1.0  0.03178941859335662  0.026372607882053065  0.724889122822001  1.0000
  H   H9        1.0  0.034388744653368976  0.1942426428854768  0.16708036662532985  1.0000
  H   H10       1.0  0.9656112557889618  0.6942426434290242  0.3329196333439489  1.0000
  H   H11       1.0  0.9656112556011079  0.8057573566394967  0.8329196333276043  1.0000
  H   H12       1.0  0.034388744465515146  0.3057573560959493  0.6670803666089853  1.0000
  H   H13       1.0  0.1586798981143325  0.8740355722638391  0.18378648088742  1.0000
  H   H14       1.0  0.841320101389263  0.3740355717202917  0.3162135190438722  1.0000
  H   H15       1.0  0.8413201012014093  0.12596442882325565  0.8162135190275277  1.0000
  H   H16       1.0  0.15867989886521375  0.6259644278046818  0.6837864809090621  1.0000
  H   H17       1.0  0.2772343976956494  0.648438729215671  0.23739617084534903  1.0000
  H   H18       1.0  0.7227656027466813  0.14843872867212365  0.2626038291239297  1.0000
  H   H19       1.0  0.7227656025588275  0.3515612718714237  0.7626038291075853  1.0000
  H   H20       1.0  0.2772343975083312  0.8515612708528498  0.7373961711641074  1.0000
  H   H21       1.0  0.4645642138392553  0.6051882881349517  0.2847603537419605  1.0000
  H   H22       1.0  0.5354357856643404  0.10518828759140442  0.2152396461893316  1.0000
  H   H23       1.0  0.5354357864152216  0.39481171295214296  0.7152396462109737  1.0000
  H   H24       1.0  0.4645642136514015  0.8948117119335691  0.7847603537256159  1.0000
  H   H25       1.0  0.6641753958630705  0.7674447247040419  0.31177505775031406  1.0000
  H   H26       1.0  0.33582460364052513  0.2674447241604946  0.18822494218097804  1.0000
  H   H27       1.0  0.3358246043914064  0.2325552763830528  0.6882249422026201  1.0000
  H   H28       1.0  0.6641753956752167  0.7325552753644788  0.8117750577339695  1.0000
  H   H29       1.0  0.7842040258057928  0.04055051439126021  0.3565085794351839  1.0000
  H   H30       1.0  0.21579597369780276  0.5405505149348075  0.1434914204961082  1.0000
  H   H31       1.0  0.21579597350994895  0.9594494851337133  0.6434914204797638  1.0000
  H   H32       1.0  0.7842040265566742  0.4594494845901659  0.856508579456826  1.0000
  H   H33       1.0  0.6737825079357935  0.34861204155974057  0.385049135123555  1.0000
  H   H34       1.0  0.32621749250653714  0.8486120405411667  0.11495086484572371  1.0000
  H   H35       1.0  0.32621749231921887  0.6513879595273542  0.6149508651644822  1.0000
  H   H36       1.0  0.6737825077479398  0.1513879589838068  0.8850491351072105  1.0000
  H   H37       1.0  0.43956503412006726  0.3712408508249  0.3702921814396049  1.0000
  H   H38       1.0  0.5604349663222634  0.8712408513684474  0.12970781852967378  1.0000
  H   H39       1.0  0.5604349661344096  0.6287591487000734  0.6297078185133294  1.0000
  H   H40       1.0  0.4395650339322135  0.12875914815652614  0.8702921814232605  1.0000
  H   H41       1.0  0.22857456587982017  0.8978479039750624  0.42441261400382974  1.0000
  H   H42       1.0  0.7714254336243112  0.39784790343151505  0.07558738626256525  1.0000
  H   H43       1.0  0.7714254334364573  0.10215209554991105  0.5755873862462207  1.0000
  H   H44       1.0  0.22857456663070141  0.6021520960934584  0.9244126140254718  1.0000
  H   H45       1.0  0.37436865018811244  0.9181377256084925  0.4036506194179929  1.0000
  H   H46       1.0  0.6256313502542181  0.4181377250649451  0.0963493805512858  1.0000
  H   H47       1.0  0.6256313500663644  0.08186227391648099  0.5963493805349412  1.0000
  H   H48       1.0  0.3743686500002586  0.5818622744600284  0.9036506194016484  1.0000
  H   H49       1.0  0.7419681519157642  0.837806332113354  0.425889168193652  1.0000
  H   H50       1.0  0.25803184852710215  0.33780633313192787  0.07411083211072955  1.0000
  H   H51       1.0  0.25803184833924836  0.16219366741161953  0.5741108320943851  1.0000
  H   H52       1.0  0.7419681517279103  0.6621936679551669  0.9258891681773075  1.0000
  H   H53       1.0  0.039283825696361664  0.6958735449141188  0.5312918344331892  1.0000
  H   H54       1.0  0.9607161743702614  0.19587354593269266  0.9687081655034006  1.0000
  H   H55       1.0  0.9607161745581152  0.3041264546108547  0.468708165519745  1.0000
  H   H56       1.0  0.039283825884215494  0.8041264535922807  0.031291834449533706  1.0000
  H   H57       1.0  0.6531469941551008  0.609534251702635  0.5550130184715378  1.0000
  H   H58       1.0  0.3468530059115222  0.10953425272120888  0.9449869814650519  1.0000
  H   H59       1.0  0.346853005160641  0.3904657478223385  0.4449869814434098  1.0000
  H   H60       1.0  0.6531469943429546  0.8904657483658859  0.055013018487882336  1.0000
  H   H61       1.0  0.029399113250958012  0.9715242562070308  0.38701423623152237  1.0000
  H   H62       1.0  0.9706008862526376  0.4715242556634834  0.11298576369976976  1.0000
  H   H63       1.0  0.9706008870035188  0.028475743317942694  0.6129857637214119  1.0000
  H   H64       1.0  0.029399113063104186  0.5284757438614901  0.8870142362151779  1.0000
  C   C1        1.0  0.22568364810775163  0.1253669658575337  0.28398555623959854  1.0000
  C   C2        1.0  0.7743163513958442  0.6253669648389598  0.21601444369169356  1.0000
  C   C3        1.0  0.7743163512079902  0.874633035229561  0.716014443675349  1.0000
  C   C4        1.0  0.22568364791989778  0.3746330346860136  0.783985556223254  1.0000
  C   C5        1.0  0.15564631378193472  0.30687556156472684  0.27474774456027873  1.0000
  C   C6        1.0  0.8443536866603959  0.8068755621082743  0.22525225540899999  1.0000
  C   C7        1.0  0.844353686472542  0.6931244379602466  0.7252522553926555  1.0000
  C   C8        1.0  0.15564631359408088  0.19312443897882053  0.7747477445439342  1.0000
  C   C9        1.0  0.08776578699382769  0.3333849144198192  0.23242438398765214  1.0000
  C   C10       1.0  0.9122342134490388  0.8333849149633666  0.26757561631672944  1.0000
  C   C11       1.0  0.9122342132611848  0.6666150851051542  0.767575616300385  1.0000
  C   C12       1.0  0.08776578680597387  0.1666150845616069  0.7324243839713077  1.0000
  C   C13       1.0  0.08899764293378645  0.17656740456934675  0.19986518163557065  1.0000
  C   C14       1.0  0.91100235750908  0.6765674051128941  0.3001348186688109  1.0000
  C   C15       1.0  0.911002357321226  0.8234325949556267  0.8001348186524665  1.0000
  C   C16       1.0  0.08899764274593264  0.32343259441207933  0.6998651816192262  1.0000
  C   C17       1.0  0.1593810646407942  0.9961299721355306  0.2092398464565202  1.0000
  C   C18       1.0  0.8406189358015366  0.49612997159198324  0.2907601535127585  1.0000
  C   C19       1.0  0.8406189356136826  0.0038700273894428784  0.790760153496414  1.0000
  C   C20       1.0  0.15938106445294042  0.5038700279329902  0.7092398464401757  1.0000
  C   C21       1.0  0.2317321988946755  0.967631295315004  0.2512731793451757  1.0000
  C   C22       1.0  0.7682678006089202  0.46763129633357786  0.24872682058611642  1.0000
  C   C23       1.0  0.7682678004210663  0.03236870420996947  0.748726820569772  1.0000
  C   C24       1.0  0.23173219964555672  0.5323687047535168  0.7512731793668178  1.0000
  C   C25       1.0  0.30749077892436555  0.7800409178031741  0.25916224361243606  1.0000
  C   C26       1.0  0.6925092205792301  0.2800409172596267  0.24083775631885607  1.0000
  C   C27       1.0  0.6925092203919119  0.2199590832839207  0.7408377566376144  1.0000
  C   C28       1.0  0.30749077967524674  0.7199590822653468  0.7591622436340782  1.0000
  C   C29       1.0  0.41604489315366955  0.7544717948146258  0.28678453648943686  1.0000
  C   C30       1.0  0.5839551063499261  0.2544717942710784  0.21321546344185524  1.0000
  C   C31       1.0  0.5839551071008073  0.24552820627246894  0.7132154634634974  1.0000
  C   C32       1.0  0.41604489296581576  0.7455282052538951  0.7867845364730923  1.0000
  C   C33       1.0  0.4833308397325134  0.9115807918105004  0.3152529003323382  1.0000
  C   C34       1.0  0.5166691597710822  0.4115807928290743  0.1847470995989539  1.0000
  C   C35       1.0  0.5166691605219635  0.08841920771447309  0.6847470996205959  1.0000
  C   C36       1.0  0.4833308395446596  0.5884192082580204  0.8152529003159937  1.0000
  C   C37       1.0  0.6149252842594146  0.8992230940164221  0.3248779148712138  1.0000
  C   C38       1.0  0.38507471618291605  0.3992230934728747  0.17512208509806493  1.0000
  C   C39       1.0  0.38507471599506216  0.10077690550855137  0.6751220850817204  1.0000
  C   C40       1.0  0.6149252840715609  0.6007769060520988  0.8248779148548693  1.0000
  C   C41       1.0  0.6825352973042246  0.0537452389470731  0.3498006397276192  1.0000
  C   C42       1.0  0.31746470219937106  0.5537452379284992  0.15019936020367297  1.0000
  C   C43       1.0  0.3174647020115172  0.9462547621400217  0.6501993601873285  1.0000
  C   C44       1.0  0.6825352980551058  0.44625476159647426  0.8498006397492612  1.0000
  C   C45       1.0  0.6207285334888974  0.22609522847139396  0.36597543531576676  1.0000
  C   C46       1.0  0.37927146695343317  0.7260952274528201  0.134024564653512  1.0000
  C   C47       1.0  0.3792714667655793  0.7739047726157007  0.6340245646371675  1.0000
  C   C48       1.0  0.6207285333010437  0.2739047720721534  0.8659754352994223  1.0000
  C   C49       1.0  0.49039530186196495  0.24017406524871154  0.3576921591583193  1.0000
  C   C50       1.0  0.5096046985803657  0.7401740657922589  0.1423078408109594  1.0000
  C   C51       1.0  0.509604698392512  0.7598259342762619  0.6423078407946148  1.0000
  C   C52       1.0  0.4903953016741111  0.25982593529483583  0.8576921591419748  1.0000
  C   C53       1.0  0.42251914959911957  0.08255484507451394  0.3333838994189727  1.0000
  C   C54       1.0  0.5774808508432112  0.5825548456180613  0.1666161005503061  1.0000
  C   C55       1.0  0.5774808506553573  0.9174451544504596  0.6666161005339616  1.0000
  C   C56       1.0  0.4225191494112657  0.41744515390691217  0.8333838994026282  1.0000
  C   C57       1.0  0.2206351922682403  0.024882156721685603  0.36194096640592555  1.0000
  C   C58       1.0  0.7793648072358911  0.5248821557031117  0.13805903386046936  1.0000
  C   C59       1.0  0.7793648070480372  0.9751178443654092  0.6380590338441249  1.0000
  C   C60       1.0  0.22063519301912157  0.4751178438218618  0.8619409664275677  1.0000
  C   C61       1.0  0.687073128069255  0.7245542088643384  0.48903993288987474  1.0000
  C   C62       1.0  0.3129268723730757  0.22455420832079112  0.010960067079404043  1.0000
  C   C63       1.0  0.31292687218522186  0.27544579066063496  0.5109600670630595  1.0000
  C   C64       1.0  0.6870731278819368  0.7754457912041823  0.989039933208633  1.0000
  C   C65       1.0  0.7736294450801011  0.7836579409050689  0.4598650116125628  1.0000
  C   C66       1.0  0.22637055442349452  0.2836579419236427  0.04013498831872935  1.0000
  C   C67       1.0  0.22637055423564073  0.21634205861990466  0.5401349883023848  1.0000
  C   C68       1.0  0.7736294458309823  0.716342059163452  0.9598650116342048  1.0000
  C   C69       1.0  0.9012052671987638  0.7747758036335656  0.47558060207765107  1.0000
  C   C70       1.0  0.09879473230536732  0.2747758030900181  0.02441939818874387  1.0000
  C   C71       1.0  0.0987947321175135  0.22522419745352926  0.5244193981723994  1.0000
  C   C72       1.0  0.9012052670109101  0.7252241964349553  0.9755806020613066  1.0000
  C   C73       1.0  0.9398599674760667  0.7029204755440367  0.5191581327172196  1.0000
  C   C74       1.0  0.06014003259055649  0.20292047500048935  0.9808418672193702  1.0000
  C   C75       1.0  0.06014003277841032  0.29707952554305805  0.4808418672357147  1.0000
  C   C76       1.0  0.9398599676639204  0.7970795245244842  0.01915813273356407  1.0000
  C   C77       1.0  0.8499954477300976  0.6437607617628187  0.5467574625831275  1.0000
  C   C78       1.0  0.15000455233706111  0.14376076121927137  0.9532425376885652  1.0000
  C   C79       1.0  0.15000455252491493  0.3562392377621547  0.4532425377049096  1.0000
  C   C80       1.0  0.8499954469792164  0.8562392383057021  0.04675746256148538  1.0000
  C   C81       1.0  0.7220962996912119  0.6555294492294479  0.5328802918407816  1.0000
  C   C82       1.0  0.2779037003754111  0.15552944868590043  0.9671197080958082  1.0000
  C   C83       1.0  0.2779037005632649  0.34447055029552565  0.4671197081121526  1.0000
  C   C84       1.0  0.7220962998790658  0.844470550839073  0.032880291857126126  1.0000
  C   C85       1.0  0.9998197832773424  0.8414450233995918  0.44686191299198436  1.0000
  C   C86       1.0  0.00018021622625313485  0.3414450228560444  0.053138086939307744  1.0000
  C   C87       1.0  0.00018021603839930907  0.15855497612538166  0.5531380869229633  1.0000
  C   C88       1.0  0.9998197830900243  0.658554976668929  0.9468619133107427  1.0000
  N   N1        1.0  0.28828930220846083  0.08923604562072138  0.32832981886499146  1.0000
  N   N2        1.0  0.7117106982338699  0.5892360446021475  0.17167018110428736  1.0000
  N   N3        1.0  0.711710698046016  0.9107639554663733  0.6716701810879429  1.0000
  N   N4        1.0  0.288289302020607  0.41076395492282597  0.8283298188486469  1.0000
  N   N5        1.0  0.2824084312665279  0.9601729441159129  0.4012443767096889  1.0000
  N   N6        1.0  0.7175915682370677  0.4601729451344868  0.0987556232216032  1.0000
  N   N7        1.0  0.717591568049214  0.03982705540906055  0.5987556232052588  1.0000
  N   N8        1.0  0.2824084310786741  0.5398270559526079  0.9012443766933443  1.0000
  N   N9        1.0  0.5530819281575725  0.7366458492854119  0.47291231167146414  1.0000
  N   N10       1.0  0.4469180722852938  0.23664584874186448  0.02708768863291745  1.0000
  N   N11       1.0  0.44691807209744  0.2633541518016829  0.527087688616573  1.0000
  N   N12       1.0  0.5530819279697187  0.763354150783109  0.9729123116551196  1.0000
  N   N13       1.0  0.892149421482984  0.5648919074449287  0.592272817576062  1.0000
  N   N14       1.0  0.10785057858363907  0.06489190690138134  0.9077271823605277  1.0000
  N   N15       1.0  0.10785057783275785  0.43510809208004475  0.4077271823388856  1.0000
  N   N16       1.0  0.8921494216708378  0.9351080926235922  0.09227281759240653  1.0000
  O   O1        1.0  0.10132616489976146  0.03444555383099776  0.35560441224476086  1.0000
  O   O2        1.0  0.8986738355425693  0.5344455543745451  0.14439558772451783  1.0000
  O   O3        1.0  0.8986738353547156  0.9655544456939757  0.6443955877081734  1.0000
  O   O4        1.0  0.10132616471190761  0.4655544451504283  0.8556044122284164  1.0000
  O   O5        1.0  0.47691555229343247  0.740464692208833  0.5012403849442241  1.0000
  O   O6        1.0  0.5230844477731906  0.24046469166528567  0.9987596149923657  1.0000
  O   O7        1.0  0.5230844479610444  0.2595353073161404  0.4987596150087102  1.0000
  O   O8        1.0  0.4769155524812863  0.7595353078596878  0.0012403849605685396  1.0000
  O   O9        1.0  0.5240442146037112  0.7424561062925465  0.43136127204364294  1.0000
  O   O10       1.0  0.47595578583861947  0.24245610574899912  0.06863872792563581  1.0000
  O   O11       1.0  0.47595578565076563  0.257543893232427  0.5686387279092913  1.0000
  O   O12       1.0  0.5240442144158575  0.7575438937759743  0.9313612720272985  1.0000
  O   O13       1.0  0.8107103438032964  0.5103522095411351  0.6161951862867094  1.0000
  O   O14       1.0  0.18928965626332664  0.010352208997587709  0.8838048136498804  1.0000
  O   O15       1.0  0.18928965645118045  0.4896477915459596  0.3838048136662248  1.0000
  O   O16       1.0  0.8107103439911503  0.9896477905273857  0.1161951863030539  1.0000
  O   O17       1.0  0.006929230848276326  0.5553476588183272  0.6034219067570732  1.0000
  O   O18       1.0  0.9930707692188824  0.05534765827477974  0.8965780935146195  1.0000
  O   O19       1.0  0.9930707694067361  0.4446523422687676  0.3965780935309639  1.0000
  O   O20       1.0  0.006929230097395105  0.9446523412501937  0.10342190673543104  1.0000
  O   O21       1.0  0.11275529365682957  0.8133786636446667  0.4603488316201143  1.0000
  O   O22       1.0  0.8872447067860366  0.3133786631011193  0.03965116868426724  1.0000
  O   O23       1.0  0.8872447065981829  0.18662133744242806  0.5396511686679227  1.0000
  O   O24       1.0  0.11275529346897574  0.6866213364238541  0.9603488316037698  1.0000
  O   O25       1.0  0.9559469322133787  0.9285684187036771  0.4087816924488823  1.0000
  O   O26       1.0  0.04405306822895206  0.428568419722251  0.0912183075203964  1.0000
  O   O27       1.0  0.04405306804109823  0.07143158082129636  0.5912183075040519  1.0000
  O   O28       1.0  0.9559469320255249  0.5714315813648437  0.9087816924325378  1.0000
