data_image0
_chemical_formula_structural       H70C72N2O6Br2
_chemical_formula_sum              "H70 C72 N2 O6 Br2"
_cell_length_a       10.800708188932862
_cell_length_b       10.185457693782311
_cell_length_c       13.491649671058044
_cell_angle_alpha    90.0
_cell_angle_beta     106.45726833280284
_cell_angle_gamma    90.0

_space_group_name_H-M_alt    "P 1"
_space_group_IT_number       1

loop_
  _space_group_symop_operation_xyz
  'x, y, z'

loop_
  _atom_site_type_symbol
  _atom_site_label
  _atom_site_symmetry_multiplicity
  _atom_site_fract_x
  _atom_site_fract_y
  _atom_site_fract_z
  _atom_site_occupancy
  H   H1        1.0  0.7971159778939911  0.24941819075551264  0.376586077867219  1.0000
  H   H2        1.0  0.20288402258908472  0.7494181910607365  0.6234139222096255  1.0000
  H   H3        1.0  0.9279904631163111  0.34838561767981757  0.44582609708903603  1.0000
  H   H4        1.0  0.07200953736676466  0.8483856179850414  0.5541739029878086  1.0000
  H   H5        1.0  0.02696375273057546  0.3596643155502262  0.303102678452225  1.0000
  H   H6        1.0  0.9730362468289688  0.8596643148736581  0.6968973216311215  1.0000
  H   H7        1.0  0.020992615473846836  0.44978743692555306  0.13013671630236848  1.0000
  H   H8        1.0  0.979007385009229  0.949787437230777  0.8698632837744761  1.0000
  H   H9        1.0  0.8239215090984533  0.5596063879858298  0.022833133486168774  1.0000
  H   H10       1.0  0.17607849138462245  0.059606388662397966  0.9771668665906759  1.0000
  H   H11       1.0  0.6319960972209067  0.585679410719223  0.0907781739299339  1.0000
  H   H12       1.0  0.3680039032621693  0.08567941041399917  0.9092218261469108  1.0000
  H   H13       1.0  0.5525254126438987  0.4105283597174566  0.2702896334434287  1.0000
  H   H14       1.0  0.4474745869156457  0.9105283600226804  0.7297103666399178  1.0000
  H   H15       1.0  0.549044564741154  0.5814403375918212  0.24276925034953245  1.0000
  H   H16       1.0  0.4509554357419219  0.08144033728659741  0.7572307497273121  1.0000
  H   H17       1.0  0.7295717452011722  0.6147820469395817  0.4075747654613888  1.0000
  H   H18       1.0  0.2704282552819036  0.11478204663435784  0.5924252346154558  1.0000
  H   H19       1.0  0.5908539380390894  0.601549671522395  0.5195819052972552  1.0000
  H   H20       1.0  0.40914606123917285  0.10154967121717116  0.48041809401325636  1.0000
  H   H21       1.0  0.46817201470034536  0.5748911905622557  0.39998327447018067  1.0000
  H   H22       1.0  0.5318279857827305  0.07489119025703186  0.600016725606664  1.0000
  H   H23       1.0  0.8584505418359396  0.5539245961862009  0.5496145538093781  1.0000
  H   H24       1.0  0.1415494586471361  0.053924595880977096  0.4503854462674667  1.0000
  H   H25       1.0  0.7470672388891791  0.46872850425900925  0.6012897201592784  1.0000
  H   H26       1.0  0.2529327615938967  0.9687285035824412  0.3987102799175662  1.0000
  H   H27       1.0  0.887912596089764  0.26603742624684784  0.6289120972934098  1.0000
  H   H28       1.0  0.11208740439331183  0.7660374265520717  0.3710879027834349  1.0000
  H   H29       1.0  0.18341585635650728  0.5177289875956265  0.6158504754578173  1.0000
  H   H30       1.0  0.8165841441265685  0.017728988272194518  0.3841495246190273  1.0000
  H   H31       1.0  0.14827357056464585  0.5657854416810232  0.7313750300672026  1.0000
  H   H32       1.0  0.8517264299184301  0.06578544137579928  0.26862497000964214  1.0000
  H   H33       1.0  0.03592819654363854  0.5998464569471099  0.6099385063147641  1.0000
  H   H34       1.0  0.9640718030159058  0.09984645664188603  0.3900614937685825  1.0000
  H   H35       1.0  0.09193799654923189  0.19910205421970922  0.7204092215910236  1.0000
  H   H36       1.0  0.9080620039338441  0.6991020545249331  0.2795907784858211  1.0000
  H   H37       1.0  0.17320741982869378  0.32782472917621686  0.8023286855510475  1.0000
  H   H38       1.0  0.826792580654382  0.8278247294814407  0.19767131452579695  1.0000
  H   H39       1.0  0.22330899546766503  0.2851233825037444  0.6935381231876024  1.0000
  H   H40       1.0  0.7766910038105971  0.7851233828089682  0.3064618761229091  1.0000
  H   H41       1.0  0.47514820609176533  0.5493259800603304  0.6563881477351616  1.0000
  H   H42       1.0  0.5248517943913105  0.049325979755106504  0.3436118523416831  1.0000
  H   H43       1.0  0.6643069294284507  0.6913531175234883  0.7201836643403161  1.0000
  H   H44       1.0  0.3356930701310936  0.19135311820005638  0.2798163357430305  1.0000
  H   H45       1.0  0.895345608599347  0.7207856947343291  0.8209144333381515  1.0000
  H   H46       1.0  0.10465439160244676  0.22078569442910526  0.179085565965858  1.0000
  H   H47       1.0  0.10258111058374392  0.6258092686292426  0.9247824681836756  1.0000
  H   H48       1.0  0.8974188889758004  0.12580926930581068  0.07521753189967093  1.0000
  H   H49       1.0  0.11459068725560431  0.38790355905281154  0.970519940444639  1.0000
  H   H50       1.0  0.88540931230394  0.8879035583762435  0.02948005963870761  1.0000
  H   H51       1.0  0.9232726939350882  0.24587641177173447  0.9135228477063715  1.0000
  H   H52       1.0  0.07672730654798758  0.7458764110951663  0.08647715237047306  1.0000
  H   H53       1.0  0.6330591344004992  0.33815021902280473  0.9694102461587866  1.0000
  H   H54       1.0  0.36694086608257664  0.8381502193280287  0.03058975391805804  1.0000
  H   H55       1.0  0.5807845519723599  0.2699196415766644  0.12812135612073514  1.0000
  H   H56       1.0  0.4192154475871846  0.7699196418818883  0.8718786439626115  1.0000
  H   H57       1.0  0.5739435761500695  0.03263450696014488  0.1718887510509039  1.0000
  H   H58       1.0  0.4260564243330063  0.5326345072653688  0.8281112490259408  1.0000
  H   H59       1.0  0.6220103404174825  0.8632428177839643  0.055803561995800596  1.0000
  H   H60       1.0  0.3779896591420619  0.3632428174787404  0.9441964380875458  1.0000
  H   H61       1.0  0.6832895377421299  0.8045613546657321  0.8985080979953368  1.0000
  H   H62       1.0  0.3167104618174144  0.3045613553423002  0.10149190208800968  1.0000
  H   H63       1.0  0.7462944659254457  0.874521730666802  0.742944628543807  1.0000
  H   H64       1.0  0.2537055345576302  0.37452173036157815  0.25705537153303754  1.0000
  H   H65       1.0  0.45497693575463904  0.37220247572323034  0.4716598698003257  1.0000
  H   H66       1.0  0.5450230638049053  0.8722024760284542  0.5283401302830207  1.0000
  H   H67       1.0  0.40298613058627863  0.33662817450933497  0.6383038377437997  1.0000
  H   H68       1.0  0.5970138698967972  0.8366281738327669  0.36169616233304497  1.0000
  H   H69       1.0  0.7623584736326973  0.04008129160942989  0.6384822989066764  1.0000
  H   H70       1.0  0.2376415268503786  0.5400812919146538  0.3615177011701682  1.0000
  C   C1        1.0  0.8307109806541015  0.3511338132780465  0.3915756639740351  1.0000
  C   C2        1.0  0.16928901982897443  0.8511338126014785  0.6084243361028095  1.0000
  C   C3        1.0  0.8312698683593863  0.41799434036223615  0.2923112729098307  1.0000
  C   C4        1.0  0.16873013120015784  0.91799434066746  0.7076887271735157  1.0000
  C   C5        1.0  0.9399648150099897  0.4079165016351007  0.25573529459971905  1.0000
  C   C6        1.0  0.060035185473086096  0.9079165019403245  0.7442647054771255  1.0000
  C   C7        1.0  0.9367457822360454  0.45858080612826196  0.15893545648586332  1.0000
  C   C8        1.0  0.06325421824703045  0.9585808064334858  0.8410645435909813  1.0000
  C   C9        1.0  0.8256820725626993  0.5209324666125702  0.09856421843529903  1.0000
  C   C10       1.0  0.17431792699684487  0.020932467289138276  0.9014357816480474  1.0000
  C   C11       1.0  0.7185835323145265  0.534649902215419  0.13603265580941412  1.0000
  C   C12       1.0  0.2814164672450179  0.034649902891987105  0.8639673442739324  1.0000
  C   C13       1.0  0.7210604355573043  0.4832576795252653  0.2326813299449426  1.0000
  C   C14       1.0  0.27893956492577165  0.9832576788486973  0.7673186701319021  1.0000
  C   C15       1.0  0.6118995835724195  0.5002595428883337  0.2791487875661217  1.0000
  C   C16       1.0  0.38810041691065644  0.000259542583109815  0.720851212510723  1.0000
  C   C17       1.0  0.6646180745751553  0.529762332947875  0.39361216863902987  1.0000
  C   C18       1.0  0.33538192498438896  0.029762332642651195  0.6063878314443166  1.0000
  C   C19       1.0  0.5619142175376987  0.5427930836505186  0.4490479460051286  1.0000
  C   C20       1.0  0.43808578294537714  0.04279308432708666  0.550952054071716  1.0000
  C   C21       1.0  0.6402786509745836  0.30974805598828586  0.4521114248124031  1.0000
  C   C22       1.0  0.35972134858496074  0.8097480553117179  0.5478885752709435  1.0000
  C   C23       1.0  0.820279744430089  0.4567132651132312  0.5600352715242414  1.0000
  C   C24       1.0  0.17972025605298686  0.9567132644366632  0.43996472855260327  1.0000
  C   C25       1.0  0.9213320237117655  0.3638111856536467  0.6156172094379965  1.0000
  C   C26       1.0  0.07866797677131047  0.8638111849770785  0.3843827906388483  1.0000
  C   C27       1.0  0.04627943486367144  0.3950374976724139  0.6588927577482846  1.0000
  C   C28       1.0  0.9537205656194044  0.8950374969958458  0.34110724232856016  1.0000
  C   C29       1.0  0.10511083124863019  0.5270187831889812  0.6529247793325943  1.0000
  C   C30       1.0  0.8948891692344456  0.027018782883757336  0.3470752207442503  1.0000
  C   C31       1.0  0.13741584675701365  0.295429855040966  0.7213820839753836  1.0000
  C   C32       1.0  0.8625841528025305  0.7954298543643981  0.2786179161079628  1.0000
  C   C33       1.0  0.5726698118046989  0.3734092344541122  0.7323165620667655  1.0000
  C   C34       1.0  0.4273301877548455  0.8734092347593361  0.26768343801658095  1.0000
  C   C35       1.0  0.5652344312448185  0.5084476187222662  0.7057494583339818  1.0000
  C   C36       1.0  0.4347655692382572  0.00844761939883415  0.2942505417428628  1.0000
  C   C37       1.0  0.6711496578702062  0.5881979337715213  0.7423026912824566  1.0000
  C   C38       1.0  0.3288503426128697  0.08819793346629748  0.25769730879438796  1.0000
  C   C39       1.0  0.789548286650786  0.5375158627718916  0.8055983029272412  1.0000
  C   C40       1.0  0.21045171355100772  0.03751586246666774  0.19440169637676843  1.0000
  C   C41       1.0  0.9013836056857678  0.6169303951687789  0.8411545378165353  1.0000
  C   C42       1.0  0.09861639479730802  0.11693039486355503  0.15884546226030932  1.0000
  C   C43       1.0  0.016754755540010036  0.5642278592456571  0.8993683392806048  1.0000
  C   C44       1.0  0.983245244943066  0.06422785992222509  0.10063166079623988  1.0000
  C   C45       1.0  0.023438272370261606  0.42930569263169094  0.9248355598695559  1.0000
  C   C46       1.0  0.9765617271892826  0.9293056919551228  0.07516444021379065  1.0000
  C   C47       1.0  0.9162661541537259  0.349701926716002  0.8931241443221044  1.0000
  C   C48       1.0  0.0837338454058183  0.8497019270212259  0.1068758557612422  1.0000
  C   C49       1.0  0.79640543731029  0.4005820123813085  0.8324476315666071  1.0000
  C   C50       1.0  0.2035945622492543  0.9005820126865324  0.16755236851673946  1.0000
  C   C51       1.0  0.685277355772534  0.31907627989893056  0.7963596245214567  1.0000
  C   C52       1.0  0.31472264471054184  0.8190762802041543  0.20364037555538791  1.0000
  C   C53       1.0  0.6890306138354191  0.17828913973188917  0.8271526297699663  1.0000
  C   C54       1.0  0.3109693866476567  0.678289140037113  0.17284737030687836  1.0000
  C   C55       1.0  0.657892547117729  0.14025198306719622  0.9192451711797717  1.0000
  C   C56       1.0  0.342107453365347  0.6402519833724201  0.08075482889707304  1.0000
  C   C57       1.0  0.6297535090399969  0.23429823791392249  0.9875338472844339  1.0000
  C   C58       1.0  0.3702464902382653  0.7342982382191464  0.012466152026077575  1.0000
  C   C59       1.0  0.6007664552138592  0.19576048126115903  0.07649533066719165  1.0000
  C   C60       1.0  0.39923354526921667  0.695760480584591  0.923504669409653  1.0000
  C   C61       1.0  0.597880648551747  0.06140627145128737  0.10183418044626619  1.0000
  C   C62       1.0  0.4021193510077972  0.5614062707747193  0.8981658196370803  1.0000
  C   C63       1.0  0.624387128030266  0.9673093970057359  0.037234635535956996  1.0000
  C   C64       1.0  0.3756128724528099  0.46730939768230395  0.9627653645408877  1.0000
  C   C65       1.0  0.6550191406532484  0.003608237460201214  0.9455157831175791  1.0000
  C   C66       1.0  0.34498085982982746  0.5036082377654251  0.05448421695926561  1.0000
  C   C67       1.0  0.6861769882317474  0.9086009405006314  0.8796632388532379  1.0000
  C   C68       1.0  0.31382301225132847  0.40860094117719953  0.1203367612236067  1.0000
  C   C69       1.0  0.7208838597992707  0.9465850018586373  0.7935368937265169  1.0000
  C   C70       1.0  0.27911613976027355  0.44658500155341346  0.20646310635682955  1.0000
  C   C71       1.0  0.7221338696972557  0.08118941974544851  0.766681924346983  1.0000
  C   C72       1.0  0.27786613078582023  0.5811894200506723  0.2333180757298616  1.0000
  N   N1        1.0  0.7415849854219864  0.40977835414778413  0.448767290960916  1.0000
  N   N2        1.0  0.25841501506108955  0.9097783544530079  0.5512327091159287  1.0000
  O   O1        1.0  0.5509291920455307  0.40320953397185394  0.48258824993953736  1.0000
  O   O2        1.0  0.4490708075140135  0.9032095342770777  0.5174117501438091  1.0000
  O   O3        1.0  0.46730311442765676  0.2940796329485022  0.6965884996006778  1.0000
  O   O4        1.0  0.5326968851318875  0.7940796332537262  0.30341150048266874  1.0000
  O   O5        1.0  0.7537493162324892  0.11810661201158887  0.6798116640220921  1.0000
  O   O6        1.0  0.24625068396930452  0.6181066123168127  0.32018833528191754  1.0000
  Br  Br1       1.0  0.271991281487745  0.3533020388663263  0.46826406031490336  1.0000
  Br  Br2       1.0  0.7280087189953308  0.8533020391715502  0.5317359397619412  1.0000
