data_image0
_chemical_formula_structural       H16C20N2O4
_chemical_formula_sum              "H16 C20 N2 O4"
_cell_length_a       6.7107736322638445
_cell_length_b       6.77396385015347
_cell_length_c       9.742871454770265
_cell_angle_alpha    77.29582857311668
_cell_angle_beta     88.43049442407278
_cell_angle_gamma    64.5549736518913

_space_group_name_H-M_alt    "P 1"
_space_group_IT_number       1

loop_
  _space_group_symop_operation_xyz
  'x, y, z'

loop_
  _atom_site_type_symbol
  _atom_site_label
  _atom_site_symmetry_multiplicity
  _atom_site_fract_x
  _atom_site_fract_y
  _atom_site_fract_z
  _atom_site_occupancy
  H   H1        1.0  0.21271074184953281  0.5739355157088535  0.8265527844312986  1.0000
  H   H2        1.0  0.7872892571979428  0.4260644846011587  0.1734472160718378  1.0000
  H   H3        1.0  0.7411662297172196  0.8383000109936507  0.8171191734299471  1.0000
  H   H4        1.0  0.2588337708234958  0.16169998931040286  0.18288082704464195  1.0000
  H   H5        1.0  0.8286065851009711  0.07450686496391015  0.9483065722974229  1.0000
  H   H6        1.0  0.17139341543974435  0.9254931353401433  0.05169342817716611  1.0000
  H   H7        1.0  0.9134988061223883  0.4177672568848888  0.8591248984730431  1.0000
  H   H8        1.0  0.0865011929172623  0.5822327434391428  0.14087510100174228  1.0000
  H   H9        1.0  0.8392040013446473  0.19157008936967437  0.717980418711103  1.0000
  H   H10       1.0  0.16079599918824303  0.8084299109483984  0.2820195807351351  1.0000
  H   H11       1.0  0.3721748115725046  0.21713915172189083  0.46477652370574446  1.0000
  H   H12       1.0  0.6278251874671458  0.7828608486021408  0.5352234757690408  1.0000
  H   H13       1.0  0.4218711694892525  0.44724067992339567  0.6203555372822231  1.0000
  H   H14       1.0  0.5781288295503978  0.5527593204006359  0.3796444621925622  1.0000
  H   H15       1.0  0.1911853406735335  0.006635748922129168  0.41041003423721795  1.0000
  H   H16       1.0  0.8088146605729929  0.993364249715912  0.5895899654438781  1.0000
  C   C1        1.0  0.4516323026345175  0.8673599438975906  0.9268061926073113  1.0000
  C   C2        1.0  0.5483676971265944  0.13264005473238963  0.07319380813068294  1.0000
  C   C3        1.0  0.63608686760479  0.9110768622581827  0.8969991930767476  1.0000
  C   C4        1.0  0.36391313143486054  0.08892313806584887  0.10300080639803778  1.0000
  C   C5        1.0  0.6840732405742651  0.04252210059067036  0.9695881359689652  1.0000
  C   C6        1.0  0.3159267599586252  0.9574778997274026  0.030411863477272757  1.0000
  C   C7        1.0  0.40208210523228916  0.7279694792621794  0.8456112467130601  1.0000
  C   C8        1.0  0.5979178960142373  0.2720305193758616  0.15438875296803609  1.0000
  C   C9        1.0  0.01258089754227293  0.36813055872224765  0.7715311789037249  1.0000
  C   C10       1.0  0.9874191029906173  0.6318694415958253  0.22846882054251313  1.0000
  C   C11       1.0  0.9732443097163237  0.239879488086845  0.6923733820359274  1.0000
  C   C12       1.0  0.0267556908243918  0.7601205122172086  0.3076266184386615  1.0000
  C   C13       1.0  0.10479559032389658  0.17701954925097133  0.5805832122996729  1.0000
  C   C14       1.0  0.895204410208994  0.8229804510671016  0.4194167871465652  1.0000
  C   C15       1.0  0.2703403885304297  0.2527911703637836  0.5534014533167936  1.0000
  C   C16       1.0  0.7296596105170461  0.7472088299462285  0.44659854718634273  1.0000
  C   C17       1.0  0.2980603991551551  0.38182129811353377  0.6371441465875874  1.0000
  C   C18       1.0  0.7019395998923207  0.6181787021964784  0.3628558539155488  1.0000
  C   C19       1.0  0.07610218002761442  0.04132137298144137  0.4931111755691395  1.0000
  C   C20       1.0  0.9238978197256723  0.9586786256625583  0.506888824140504  1.0000
  N   N1        1.0  0.17219587446571377  0.43815664734868104  0.7446260583217138  1.0000
  N   N2        1.0  0.8278041245739368  0.5618433529753505  0.2553739411530716  1.0000
  O   O1        1.0  0.23788483299931795  0.6781327293857575  0.8905459386685037  1.0000
  O   O2        1.0  0.7621151675335723  0.3218672709323156  0.10945406077773438  1.0000
  O   O3        1.0  0.5083345208001001  0.6672630320884049  0.7442905215835112  1.0000
  O   O4        1.0  0.49166547824737555  0.3327369682216072  0.2557094789196251  1.0000
