data_image0
_chemical_formula_structural       H56C52N10O10F2Cl2Br2
_chemical_formula_sum              "H56 C52 N10 O10 F2 Cl2 Br2"
_cell_length_a       6.967135918428235
_cell_length_b       14.806751696042726
_cell_length_c       14.557039777947496
_cell_angle_alpha    116.57944117979959
_cell_angle_beta     93.04537350561671
_cell_angle_gamma    101.01994432665165

_space_group_name_H-M_alt    "P 1"
_space_group_IT_number       1

loop_
  _space_group_symop_operation_xyz
  'x, y, z'

loop_
  _atom_site_type_symbol
  _atom_site_label
  _atom_site_symmetry_multiplicity
  _atom_site_fract_x
  _atom_site_fract_y
  _atom_site_fract_z
  _atom_site_occupancy
  H   H1        1.0  0.14815978998989757  0.271593872598933  0.9415572399147267  1.0000
  H   H2        1.0  0.851840209994578  0.7284061271950035  0.05844276001922588  1.0000
  H   H3        1.0  0.5659191200677595  0.4567265018529739  0.7276251266796405  1.0000
  H   H4        1.0  0.43408088017833424  0.5432734986296367  0.2723748732557609  1.0000
  H   H5        1.0  0.26364959996185183  0.5677875131115798  0.6749080108388762  1.0000
  H   H6        1.0  0.7363504002842418  0.4322124873710307  0.32509198909652515  1.0000
  H   H7        1.0  0.19332548250954731  0.2782159715549188  0.31618989872817327  1.0000
  H   H8        1.0  0.8066745174749282  0.7217840282390178  0.6838101012057792  1.0000
  H   H9        1.0  0.7529574406319473  0.4644113169216692  0.8824558368010478  1.0000
  H   H10       1.0  0.2470425595898292  0.5355886832342375  0.1175441639107989  1.0000
  H   H11       1.0  0.9034711709814567  0.25466181704282076  0.8577232176599011  1.0000
  H   H12       1.0  0.09652882926463702  0.7453381834397897  0.1422767822755002  1.0000
  H   H13       1.0  0.7883894128447103  0.24886679486892055  0.7430376895493719  1.0000
  H   H14       1.0  0.21161058713976527  0.751133204925016  0.25696231038458056  1.0000
  H   H15       1.0  0.4969173365651996  0.2031001908007952  0.790817913492391  1.0000
  H   H16       1.0  0.503082663419276  0.7968998089931414  0.20918208644156164  1.0000
  H   H17       1.0  0.9458296244227241  0.10412828315190076  0.6336417060226355  1.0000
  H   H18       1.0  0.054170375561751374  0.8958717166420357  0.3663582939113169  1.0000
  H   H19       1.0  0.055432536146594706  0.10696014091704369  0.7480599750515176  1.0000
  H   H20       1.0  0.9445674640994989  0.8930398595655671  0.2519400248838838  1.0000
  H   H21       1.0  0.7932029744169732  0.06920878573691105  0.7126121359365577  1.0000
  H   H22       1.0  0.2067970255675024  0.9307912140570255  0.28738786399739485  1.0000
  H   H23       1.0  0.3267097588244816  0.9079206340974704  0.7912979892820902  1.0000
  H   H24       1.0  0.6732902411599939  0.09207936569646608  0.20870201065186222  1.0000
  H   H25       1.0  0.4473974433789941  0.09984908117156131  0.887093393166474  1.0000
  H   H26       1.0  0.5526025568670995  0.9001509193110493  0.1129066067689274  1.0000
  H   H27       1.0  0.3093871669332089  0.9207574898378161  0.5012591268589918  1.0000
  H   H28       1.0  0.6906128330512665  0.07924250995612027  0.4987408730749608  1.0000
  H   H29       1.0  0.2643764550517064  0.19649916016629093  0.045024268479930414  1.0000
  H   H30       1.0  0.7356235451943871  0.8035008403163196  0.9549757314554709  1.0000
  H   H31       1.0  0.4081921392138966  0.27034504927708913  0.17330025059199994  1.0000
  H   H32       1.0  0.5918078610078799  0.7296549508788175  0.8266997501198468  1.0000
  H   H33       1.0  0.22391129192815568  0.3188731735833867  0.132030160043448  1.0000
  H   H34       1.0  0.7760887080563199  0.6811268262105499  0.8679698398905046  1.0000
  H   H35       1.0  0.4188233685874475  0.113741702579236  0.5975754021710875  1.0000
  H   H36       1.0  0.5811766313970281  0.8862582972147005  0.4024245977628651  1.0000
  H   H37       1.0  0.19718251159951758  0.7685914347883473  0.5034167107437169  1.0000
  H   H38       1.0  0.802817488384958  0.2314085650055891  0.49658328919023564  1.0000
  H   H39       1.0  0.18871167861326432  0.6191158013182431  0.4479664183795199  1.0000
  H   H40       1.0  0.8112883216328293  0.3808841991643675  0.5520335815558814  1.0000
  H   H41       1.0  0.7585792165201228  0.4172004229429274  0.018248063448862626  1.0000
  H   H42       1.0  0.24142078346435275  0.5827995768510091  0.98175193648509  1.0000
  H   H43       1.0  0.6356613776131087  0.35237315750206677  0.10764089544497557  1.0000
  H   H44       1.0  0.364338622371367  0.6476268422918698  0.8923591044889769  1.0000
  H   H45       1.0  0.11147829757373166  0.7921204079674156  0.8957097640704209  1.0000
  H   H46       1.0  0.888521702672362  0.20787959251519517  0.10429023586498055  1.0000
  H   H47       1.0  0.18533214971537762  0.7549356916342345  0.7862472891536201  1.0000
  H   H48       1.0  0.8146678505307161  0.24506430884837613  0.21375271078178124  1.0000
  H   H49       1.0  0.29128231222576445  0.1074453690872925  0.22278886147783095  1.0000
  H   H50       1.0  0.7087176880203292  0.8925546313953181  0.7772111384575704  1.0000
  H   H51       1.0  0.06086692854065444  0.10012684598107222  0.1575092927199876  1.0000
  H   H52       1.0  0.9391330714438211  0.8998731538128644  0.8424907072139649  1.0000
  H   H53       1.0  0.06696228818319895  0.02699481320127984  0.22562756818865276  1.0000
  H   H54       1.0  0.9330377120385773  0.9730051869546268  0.7743724325231938  1.0000
  H   H55       1.0  0.38242569972430956  0.062037470586150945  0.06422881275974181  1.0000
  H   H56       1.0  0.6175742988220423  0.9379625291999854  0.9357711871763096  1.0000
  C   C1        1.0  0.26346429853771725  0.3373570597225176  0.8422972867891472  1.0000
  C   C2        1.0  0.7365357014467583  0.6626429400714189  0.15770271314480538  1.0000
  C   C3        1.0  0.2752426557483112  0.31408041059627195  0.9252610931524996  1.0000
  C   C4        1.0  0.7247573442361643  0.6859195891976645  0.07473890678145285  1.0000
  C   C5        1.0  0.43736026845126247  0.39386115834681  0.8253101964039941  1.0000
  C   C6        1.0  0.5626397315332131  0.6061388414471265  0.1746898035299586  1.0000
  C   C7        1.0  0.2421348674588878  0.525655451732244  0.511665850909537  1.0000
  C   C8        1.0  0.7578651325255878  0.47434454806169246  0.48833414902441546  1.0000
  C   C9        1.0  0.4297254013386417  0.41665202022447195  0.7403985351154171  1.0000
  C   C10       1.0  0.570274598645834  0.5833479795694645  0.2596014648185355  1.0000
  C   C11       1.0  0.45833786909431107  0.34455283135278847  0.9891861933003493  1.0000
  C   C12       1.0  0.5416621308901645  0.6554471684411479  0.010813806633603176  1.0000
  C   C13       1.0  0.22091010887975002  0.4404213952071108  0.41256522634618226  1.0000
  C   C14       1.0  0.7790898913663437  0.5595786052754999  0.5874347735892191  1.0000
  C   C15       1.0  0.25410377851759  0.5053914065503773  0.596830534012641  1.0000
  C   C16       1.0  0.7458962214668856  0.49460859324355927  0.4031694659213116  1.0000
  C   C17       1.0  0.24664543792515983  0.40482967301675604  0.583039052648675  1.0000
  C   C18       1.0  0.7533545623209338  0.5951703274658547  0.41696094728672645  1.0000
  C   C19       1.0  0.2938180629720723  0.7181667378851901  0.6028848837118909  1.0000
  C   C20       1.0  0.7061819372740212  0.28183326259742053  0.3971151162235105  1.0000
  C   C21       1.0  0.22886561887120727  0.32327004280518573  0.48219095473628915  1.0000
  C   C22       1.0  0.7711343811132684  0.6767299569887507  0.5178090451976634  1.0000
  C   C23       1.0  0.21370329624538825  0.3400786135453392  0.39553184676680014  1.0000
  C   C24       1.0  0.7862967037390874  0.6599213862485973  0.6044681531671523  1.0000
  C   C25       1.0  0.07678494053846284  0.33109331533645614  0.6915598415939213  1.0000
  C   C26       1.0  0.9232150594460128  0.6689066844574802  0.30844015834003113  1.0000
  C   C27       1.0  0.25700007018653814  0.38618929297139104  0.6746574336022032  1.0000
  C   C28       1.0  0.7429999283598137  0.6138107068147453  0.325342566333848  1.0000
  C   C29       1.0  0.6138748051483814  0.42158420280828146  0.890903472640533  1.0000
  C   C30       1.0  0.3861251948360942  0.5784157969856552  0.10909652729341943  1.0000
  C   C31       1.0  0.31879423391790884  0.901808274554739  0.6398872403341582  1.0000
  C   C32       1.0  0.6812057660665668  0.09819172523919756  0.3601127595997943  1.0000
  C   C33       1.0  0.9159987195639544  0.2344846797442172  0.7765484678746002  1.0000
  C   C34       1.0  0.08400128042052134  0.7655153200497193  0.22345153205935234  1.0000
  C   C35       1.0  0.4445707592380886  0.11905300036680523  0.7486106630738935  1.0000
  C   C36       1.0  0.555429240746387  0.8809469994271313  0.25138933686005904  1.0000
  C   C37       1.0  0.9285752367525115  0.12185467732662661  0.7140637406830325  1.0000
  C   C38       1.0  0.07142476323196403  0.8781453224673099  0.2859362592509201  1.0000
  C   C39       1.0  0.3542421396410429  0.9526210567076662  0.7490819074510816  1.0000
  C   C40       1.0  0.6457578606050508  0.04737894377494447  0.2509180924843198  1.0000
  C   C41       1.0  0.4183503187309087  0.060858791448813586  0.8023390773623523  1.0000
  C   C42       1.0  0.5816496815151849  0.9391412090337972  0.19766092257304915  1.0000
  C   C43       1.0  0.3403496399510453  0.9608453547016391  0.5859542811942854  1.0000
  C   C44       1.0  0.6596503600334305  0.03915464509229751  0.4140457187396672  1.0000
  C   C45       1.0  0.3385207340760483  0.2750495868429248  0.10678277831004776  1.0000
  C   C46       1.0  0.6614792661700454  0.7249504136396859  0.8932172216253537  1.0000
  C   C47       1.0  0.40234388468659965  0.06871661912180521  0.6401608015445507  1.0000
  C   C48       1.0  0.597656115297876  0.9312833806721312  0.3598391983894018  1.0000
  C   C49       1.0  0.17671998497798594  0.9653130755365567  0.08156517519811003  1.0000
  C   C50       1.0  0.8232800150064896  0.03468692425737978  0.9184348247358425  1.0000
  C   C51       1.0  0.14828654745379202  0.05479549342569454  0.17759455085174  1.0000
  C   C52       1.0  0.8517134525306836  0.9452045063682419  0.8224054490822124  1.0000
  N   N1        1.0  0.6215080445131429  0.3971627378783556  0.9686182729210958  1.0000
  N   N2        1.0  0.37849195547133274  0.602837261915581  0.03138172701285658  1.0000
  N   N3        1.0  0.09153249155271254  0.3056205120092267  0.7732467994215213  1.0000
  N   N4        1.0  0.9084675086933811  0.694379488473384  0.22675320051388007  1.0000
  N   N5        1.0  0.24046179218117195  0.6213448007200799  0.5162825619025309  1.0000
  N   N6        1.0  0.7595382078033036  0.3786551990738566  0.4837174380314216  1.0000
  N   N7        1.0  0.2571597625217131  0.7938401357514464  0.579329623274637  1.0000
  N   N8        1.0  0.7428402377243807  0.20615986473116435  0.42067037666076446  1.0000
  N   N9        1.0  0.4915157965038136  0.32590549323579654  0.0699579729566561  1.0000
  N   N10       1.0  0.5084842022798391  0.67409450691231  0.9300420277572894  1.0000
  O   O1        1.0  0.36730966274801846  0.7333921086408083  0.6901176386286607  1.0000
  O   O2        1.0  0.6326903372364572  0.2666078911531283  0.30988236130529173  1.0000
  O   O3        1.0  0.9125582486354742  0.3037426871996497  0.6353832444094885  1.0000
  O   O4        1.0  0.08744175134900144  0.6962573125942869  0.3646167555244642  1.0000
  O   O5        1.0  0.0815005568285086  0.7827886308160705  0.8250611622932538  1.0000
  O   O6        1.0  0.9184994434175849  0.21721136966654017  0.17493883764214754  1.0000
  O   O7        1.0  0.312961875820382  0.9885308402788672  0.02665777124415602  1.0000
  O   O8        1.0  0.6870381241640935  0.011469159515069282  0.9733422286897965  1.0000
  O   O9        1.0  0.0868873437200253  0.8741376449260739  0.04727507547076967  1.0000
  O   O10       1.0  0.9131126562644503  0.12586235486786257  0.9527249244631828  1.0000
  F   F1        1.0  0.20409813456680112  0.4589898287443659  0.3290505973626038  1.0000
  F   F2        1.0  0.7959018656792926  0.5410101717382447  0.6709494025727976  1.0000
  Cl  Cl1       1.0  0.044109146838496184  0.5705554058243115  0.878667989090992  1.0000
  Cl  Cl2       1.0  0.9558908531459793  0.429444593969625  0.12133201084296058  1.0000
  Br  Br1       1.0  0.22893893009166966  0.18683763823148736  0.4623842459312185  1.0000
  Br  Br2       1.0  0.7710610698928059  0.8131623615624491  0.5376157540027341  1.0000
