data_image0
_chemical_formula_structural       H38C44N6O12S4
_chemical_formula_sum              "H38 C44 N6 O12 S4"
_cell_length_a       5.027959163430184
_cell_length_b       10.936749885449895
_cell_length_c       19.366901606308012
_cell_angle_alpha    99.87530898590889
_cell_angle_beta     94.56665757985529
_cell_angle_gamma    100.70572210133625

_space_group_name_H-M_alt    "P 1"
_space_group_IT_number       1

loop_
  _space_group_symop_operation_xyz
  'x, y, z'

loop_
  _atom_site_type_symbol
  _atom_site_label
  _atom_site_symmetry_multiplicity
  _atom_site_fract_x
  _atom_site_fract_y
  _atom_site_fract_z
  _atom_site_occupancy
  H   H1        1.0  0.862292453223012  0.6382584232869382  0.3840462019830414  1.0000
  H   H2        1.0  0.13770754626384152  0.3617415775329312  0.6159537981378318  1.0000
  H   H3        1.0  0.9217868471529983  0.14356534690682465  0.4006801420005362  1.0000
  H   H4        1.0  0.07821315191366963  0.8564346529652063  0.5993198580182729  1.0000
  H   H5        1.0  0.07409006176379385  0.3683242549656211  0.46271699104497976  1.0000
  H   H6        1.0  0.9259099372892593  0.6316757449093324  0.537283008457503  1.0000
  H   H7        1.0  0.7616465506372522  0.2133018329193137  0.2403745587493407  1.0000
  H   H8        1.0  0.23835344842941575  0.7866981669527172  0.7596254412694684  1.0000
  H   H9        1.0  0.051827054888175336  0.1872772195082314  0.14440747672122464  1.0000
  H   H10       1.0  0.9481729461723187  0.8127227803607743  0.855592523334646  1.0000
  H   H11       1.0  0.43619971388361767  0.5823018033871058  0.20290451160275713  1.0000
  H   H12       1.0  0.5638002851830504  0.4176981964849252  0.7970954884160519  1.0000
  H   H13       1.0  0.1464556400835544  0.6085184023988806  0.3000551606568634  1.0000
  H   H14       1.0  0.8535443609769395  0.391481597470125  0.6999448393990072  1.0000
  H   H15       1.0  0.22136136221012878  0.5029360152718287  0.04292869904590812  1.0000
  H   H16       1.0  0.7786386368565392  0.49706398460020235  0.957071300972901  1.0000
  H   H17       1.0  0.028813863740430094  0.3433797043517871  0.02533965951935382  1.0000
  H   H18       1.0  0.9711861353262378  0.6566202955202438  0.9746603404994553  1.0000
  H   H19       1.0  0.32065630920832255  0.38365477132987746  0.9787793743489368  1.0000
  H   H20       1.0  0.6793436898583454  0.6163452285421533  0.021220625669872414  1.0000
  H   H21       1.0  0.430450325605701  0.06936702788147107  0.2102986446150557  1.0000
  H   H22       1.0  0.5695496734609669  0.9306329719905599  0.7897013554037534  1.0000
  H   H23       1.0  0.9577633470435655  0.688634163773567  0.16759741424747246  1.0000
  H   H24       1.0  0.04223665443711408  0.3113658370432768  0.8324025859104621  1.0000
  H   H25       1.0  0.7505238739850223  0.7364891085496409  0.28032175405488124  1.0000
  H   H26       1.0  0.24947612707547165  0.2635108913193647  0.7196782460009892  1.0000
  H   H27       1.0  0.8846696183840842  0.9444894517503929  0.35757500810340276  1.0000
  H   H28       1.0  0.11533038267640958  0.05551054811861274  0.6424249919524678  1.0000
  H   H29       1.0  0.2251750181556988  0.014852438720721072  0.059728020072494836  1.0000
  H   H30       1.0  0.7748249813175401  0.9851475621020708  0.940271979532052  1.0000
  H   H31       1.0  0.9654944686413128  0.8715746202907432  0.04049456416530748  1.0000
  H   H32       1.0  0.03450553241918116  0.12842537957826244  0.959505435890563  1.0000
  H   H33       1.0  0.2644233576474241  0.8845023546110241  0.9927576028045451  1.0000
  H   H34       1.0  0.7355766434130698  0.11549764525798166  0.00724239725132542  1.0000
  H   H35       1.0  0.19692981465076104  0.9336777809103834  0.4963049166487003  1.0000
  H   H36       1.0  0.8030701864097329  0.06632221895862217  0.5036950834071703  1.0000
  H   H37       1.0  0.4186091260983153  0.6407281142976924  0.4525236333067377  1.0000
  H   H38       1.0  0.5813908753823642  0.3592718865191515  0.5474763668511969  1.0000
  C   C1        1.0  0.7359881784839836  0.5442504339495062  0.3778260622722236  1.0000
  C   C2        1.0  0.2640118225765104  0.4557495659194995  0.6221739377836469  1.0000
  C   C3        1.0  0.7512567306192791  0.4334416997095482  0.33159089077870274  1.0000
  C   C4        1.0  0.2487432684473889  0.5665583001624827  0.6684091092401063  1.0000
  C   C5        1.0  0.24819881659117846  0.1533525692430956  0.33258138421100586  1.0000
  C   C6        1.0  0.7518011824754894  0.8466474306289354  0.6674186158078033  1.0000
  C   C7        1.0  0.1000889966500253  0.20297938885798683  0.3867006495792375  1.0000
  C   C8        1.0  0.8999110024166426  0.797020611014044  0.6132993504395715  1.0000
  C   C9        1.0  0.1804564184938855  0.32765604095512163  0.42058669729965364  1.0000
  C   C10       1.0  0.8195435805727824  0.6723439589169092  0.5794133027191554  1.0000
  C   C11       1.0  0.4049569131073139  0.4022237307507437  0.3989487226618464  1.0000
  C   C12       1.0  0.5950430879531801  0.5977762691182619  0.6010512773940241  1.0000
  C   C13       1.0  0.9286139850400411  0.4125409836332926  0.2768269423077869  1.0000
  C   C14       1.0  0.07138601402662678  0.5874590162387384  0.7231730577110221  1.0000
  C   C15       1.0  0.9089734752684414  0.2939231520022361  0.23261575266351298  1.0000
  C   C16       1.0  0.09102652579205234  0.7060768478667694  0.7673842473923576  1.0000
  C   C17       1.0  0.07372812865107249  0.27931827717242597  0.17877896109238858  1.0000
  C   C18       1.0  0.9262718704019807  0.7206817227025276  0.8212210384100941  1.0000
  C   C19       1.0  0.2624770563283476  0.3832639750863939  0.16872958315297265  1.0000
  C   C20       1.0  0.7375229427383203  0.616736024785637  0.8312704168658366  1.0000
  C   C21       1.0  0.28997299168128426  0.5018058707935592  0.21243052953278618  1.0000
  C   C22       1.0  0.7100270073853836  0.4981941290784717  0.7875694704860229  1.0000
  C   C23       1.0  0.12534871565555208  0.5158816777795086  0.2663191681458175  1.0000
  C   C24       1.0  0.8746512834111156  0.48411832209252226  0.7336808318729916  1.0000
  C   C25       1.0  0.2314032008137773  0.4028099004990595  0.028355483396431784  1.0000
  C   C26       1.0  0.7685968002467167  0.5971900993699462  0.9716445166594386  1.0000
  C   C27       1.0  0.1666756111762129  0.024092535047309988  0.28958463548510965  1.0000
  C   C28       1.0  0.8333243898706661  0.9759074648246181  0.7104153640544345  1.0000
  C   C29       1.0  0.2828061687929802  0.9968042724451679  0.22654210190699728  1.0000
  C   C30       1.0  0.7171938302736877  0.0031957274268630226  0.7734578981118118  1.0000
  C   C31       1.0  0.20894653438006722  0.8770851927303129  0.18430624604572513  1.0000
  C   C32       1.0  0.7910534646866008  0.12291480714171807  0.815693753973084  1.0000
  C   C33       1.0  0.01563706519871864  0.7815626572477359  0.2020243365959849  1.0000
  C   C34       1.0  0.9843629362819609  0.21843734356910802  0.7979756635619497  1.0000
  C   C35       1.0  0.9007629652196929  0.8090598357593581  0.2647183111181432  1.0000
  C   C36       1.0  0.0992370338469749  0.19094016411267278  0.7352816889006659  1.0000
  C   C37       1.0  0.9749022796151952  0.9284698853579654  0.30833931381335883  1.0000
  C   C38       1.0  0.02509771945147275  0.07153011451406546  0.6916606862054503  1.0000
  C   C39       1.0  0.1833266922238033  0.9114445918063776  0.04297314797378267  1.0000
  C   C40       1.0  0.8166733072630503  0.0885554090134917  0.9570268521470905  1.0000
  C   C41       1.0  0.41459969332958957  0.9434228895289449  0.49152675572582577  1.0000
  C   C42       1.0  0.5854003077309045  0.05657711034006079  0.5084732443300447  1.0000
  C   C43       1.0  0.514421751490673  0.8263506444654063  0.4657594598131521  1.0000
  C   C44       1.0  0.485578247575995  0.17364935540662474  0.534240540205657  1.0000
  N   N1        1.0  0.5272326477817054  0.5250178051715257  0.4180701106092926  1.0000
  N   N2        1.0  0.4727673512849626  0.4749821947005052  0.5819298894095165  1.0000
  N   N3        1.0  0.5387793727117255  0.343654250551678  0.34603073473898954  1.0000
  N   N4        1.0  0.46122062834876837  0.6563457493173276  0.6539692653168809  1.0000
  N   N5        1.0  0.468897930071172  0.22212092902471517  0.31430835579946503  1.0000
  N   N6        1.0  0.5311020709893219  0.7778790708442905  0.6856916442564055  1.0000
  O   O1        1.0  0.4665941293590062  0.2334954462319504  0.07637363800071104  1.0000
  O   O2        1.0  0.5334058717014877  0.7665045536370553  0.9236263620551594  1.0000
  O   O3        1.0  0.6987854034822439  0.4625580435959454  0.1098284980727219  1.0000
  O   O4        1.0  0.301214595584424  0.5374419562760856  0.8901715019460872  1.0000
  O   O5        1.0  0.6438845968437505  0.9266351428188837  0.11909120128759496  1.0000
  O   O6        1.0  0.35611540421674337  0.07336485705012208  0.8809087987682755  1.0000
  O   O7        1.0  0.33449065907750725  0.7129963427459485  0.0834493946870222  1.0000
  O   O8        1.0  0.6655093404093464  0.28700365807392075  0.9165506054338511  1.0000
  O   O9        1.0  0.7374978948863893  0.8268020171699922  0.4429964659033534  1.0000
  O   O10       1.0  0.26250210617410463  0.17319798269901335  0.5570035341525171  1.0000
  O   O11       1.0  0.3382640264562109  0.7218439449912641  0.4708400025556273  1.0000
  O   O12       1.0  0.6617359726104569  0.2781560548807667  0.5291599974631818  1.0000
  S   S1        1.0  0.448852218217066  0.36656099335213  0.09495633149570723  1.0000
  S   S2        1.0  0.5511477808496019  0.6334390065199009  0.9050436685231019  1.0000
  S   S3        1.0  0.3696517564993303  0.8496146024883574  0.10565052916674106  1.0000
  S   S4        1.0  0.6303482425673376  0.15038539738367337  0.894349470852068  1.0000
