data_image0
_chemical_formula_structural       H136C104N16O16S12
_chemical_formula_sum              "H136 C104 N16 O16 S12"
_cell_length_a       19.072088716487144
_cell_length_b       18.559674623854384
_cell_length_c       7.872712223877222
_cell_angle_alpha    90.0
_cell_angle_beta     95.59859659427661
_cell_angle_gamma    90.0

_space_group_name_H-M_alt    "P 1"
_space_group_IT_number       1

loop_
  _space_group_symop_operation_xyz
  'x, y, z'

loop_
  _atom_site_type_symbol
  _atom_site_label
  _atom_site_symmetry_multiplicity
  _atom_site_fract_x
  _atom_site_fract_y
  _atom_site_fract_z
  _atom_site_occupancy
  H   H1        1.0  0.4008505938928118  0.5337521713482881  0.40242232168673037  1.0000
  H   H2        1.0  0.5991494062400048  0.03375217145212571  0.0975776791713904  1.0000
  H   H3        1.0  0.5991494058526278  0.46624782844403667  0.5975776782936324  1.0000
  H   H4        1.0  0.40085059402898066  0.9662478283401991  0.9024223207908958  1.0000
  H   H5        1.0  0.354451240894074  0.5954510735762513  0.5229491082256529  1.0000
  H   H6        1.0  0.6455487589875345  0.09545107368008884  0.9770508908588751  1.0000
  H   H7        1.0  0.6455487593749115  0.4045489267548761  0.47705089173663323  1.0000
  H   H8        1.0  0.3544512407579052  0.9045489266510386  0.022949109121487565  1.0000
  H   H9        1.0  0.6543237629385096  0.7809959766950775  0.8714406653994021  1.0000
  H   H10       1.0  0.3456762370019176  0.2809959767989151  0.6285593349612965  1.0000
  H   H11       1.0  0.34567623680693  0.2190040230972473  0.12855933458096055  1.0000
  H   H12       1.0  0.6543237627435221  0.7190040235322123  0.3714406650190663  1.0000
  H   H13       1.0  0.6232976601144569  0.7176610183068963  0.016790410132804422  1.0000
  H   H14       1.0  0.37670233995954105  0.2176610184107339  0.48320958944914594  1.0000
  H   H15       1.0  0.3767023401545286  0.28233898148542846  0.9832095898294817  1.0000
  H   H16       1.0  0.6232976597858986  0.7823389819203934  0.5167904105312168  1.0000
  H   H17       1.0  0.28132963128978944  0.5589419297613539  0.3040934708887325  1.0000
  H   H18       1.0  0.7186703682606627  0.05894192986519153  0.1959065287112944  1.0000
  H   H19       1.0  0.7186703684556502  0.44105807003097086  0.6959065290916302  1.0000
  H   H20       1.0  0.2813296314847769  0.9410580704659358  0.8040934712690683  1.0000
  H   H21       1.0  0.18510939053028563  0.5677834355164759  0.07717159887360621  1.0000
  H   H22       1.0  0.8148906095437123  0.06778343562031351  0.42282840070834415  1.0000
  H   H23       1.0  0.8148906097386999  0.4322165642758488  0.9228284010886799  1.0000
  H   H24       1.0  0.18510939072527316  0.9322165647108139  0.5771715992539419  1.0000
  H   H25       1.0  0.297794758483181  0.7322554972236688  0.8290532026850385  1.0000
  H   H26       1.0  0.7022052413984274  0.23225549732750636  0.6709467963994896  1.0000
  H   H27       1.0  0.7022052412622586  0.267744502568656  0.1709467972953242  1.0000
  H   H28       1.0  0.29779475887055806  0.767744503003621  0.3290532035627966  1.0000
  H   H29       1.0  0.3937142321877001  0.7264597528380562  0.062398978142620215  1.0000
  H   H30       1.0  0.6062857679451166  0.22645975240309127  0.43760102271550055  1.0000
  H   H31       1.0  0.6062857675577396  0.27354024749307115  0.9376010218377425  1.0000
  H   H32       1.0  0.3937142323826876  0.7735402473892335  0.5623989785229561  1.0000
  H   H33       1.0  0.1258474845758722  0.550448516854352  0.8246034635645126  1.0000
  H   H34       1.0  0.8741525158881007  0.05044851641938709  0.6753965367781092  1.0000
  H   H35       1.0  0.8741525156931131  0.4495514834767753  0.17539653639777356  1.0000
  H   H36       1.0  0.12584748438088464  0.9495514833729378  0.32460346318417677  1.0000
  H   H37       1.0  0.08850944741624922  0.62229760456875  0.9360691289241793  1.0000
  H   H38       1.0  0.9114905530477238  0.12229760413378507  0.5639308714184427  1.0000
  H   H39       1.0  0.9114905528527362  0.3777023957623773  0.06393087103810681  1.0000
  H   H40       1.0  0.08850944722126168  0.8777023956585396  0.43606912854384355  1.0000
  H   H41       1.0  0.06924326093287393  0.6138765560769235  0.7120464334568726  1.0000
  H   H42       1.0  0.9307567389487345  0.11387655618076112  0.7879535656276555  1.0000
  H   H43       1.0  0.9307567393361117  0.3861234437154013  0.2879535665054136  1.0000
  H   H44       1.0  0.0692432607967051  0.8861234436115636  0.2120464343527072  1.0000
  H   H45       1.0  0.24692788585690667  0.666180021502569  0.5889434129056422  1.0000
  H   H46       1.0  0.7530721140835206  0.1661800216064067  0.9110565874550562  1.0000
  H   H47       1.0  0.753072113888533  0.3338199782897557  0.41105658707472054  1.0000
  H   H48       1.0  0.24692788566191912  0.833819978185918  0.08894341252530642  1.0000
  H   H49       1.0  0.2181197206876915  0.5761186888619827  0.6196918856413446  1.0000
  H   H50       1.0  0.7818802792527356  0.07611868896582032  0.8803081147193539  1.0000
  H   H51       1.0  0.781880279581294  0.4238813109303421  0.3803081143209416  1.0000
  H   H52       1.0  0.21811972049270395  0.9238813108265045  0.11969188526100877  1.0000
  H   H53       1.0  0.16047726954026953  0.6394353107218089  0.5111868725524024  1.0000
  H   H54       1.0  0.8395227304001577  0.1394353108256465  0.9888131278082962  1.0000
  H   H55       1.0  0.8395227302051701  0.3605646890705159  0.48881312742796046  1.0000
  H   H56       1.0  0.16047726934528198  0.8605646889666783  0.011186872172066506  1.0000
  H   H57       1.0  0.19072855019990928  0.7711253790842474  0.7410492707529236  1.0000
  H   H58       1.0  0.8092714497405178  0.27112537864928254  0.7589507296077749  1.0000
  H   H59       1.0  0.8092714495455303  0.2288746212468799  0.2589507292274392  1.0000
  H   H60       1.0  0.1907285505284676  0.7288746211430422  0.24104927035451115  1.0000
  H   H61       1.0  0.10547512444636613  0.7393183214733742  0.6671512828274395  1.0000
  H   H62       1.0  0.894524875494061  0.23931832157721175  0.8328487175332591  1.0000
  H   H63       1.0  0.8945248753578922  0.26068167831895067  0.33284871842909375  1.0000
  H   H64       1.0  0.10547512425137857  0.760681678215113  0.16715128244710367  1.0000
  H   H65       1.0  0.12839262322487902  0.7524647583018732  0.8888704057462583  1.0000
  H   H66       1.0  0.8716073767155481  0.25246475840571087  0.61112959461444  1.0000
  H   H67       1.0  0.8716073770441064  0.2475352414904515  0.11112959421602776  1.0000
  H   H68       1.0  0.1283926230298915  0.7475352413866139  0.3888704053659226  1.0000
  H   H69       1.0  0.7842273549004221  0.5788965635308486  0.8174388214937743  1.0000
  H   H70       1.0  0.215772645040005  0.0788965636346863  0.6825611788669242  1.0000
  H   H71       1.0  0.21577264484501749  0.42110343626147606  0.18256117848658843  1.0000
  H   H72       1.0  0.7842273552289805  0.9211034366964411  0.31743882109536187  1.0000
  H   H73       1.0  0.8925651111128647  0.5607605149835657  0.009899568860736485  1.0000
  H   H74       1.0  0.10743488896113325  0.06076051508740327  0.49010043072121384  1.0000
  H   H75       1.0  0.1074348891561208  0.43923948480875913  0.9901004311015497  1.0000
  H   H76       1.0  0.8925651107843062  0.9392394847049215  0.5098995692591489  1.0000
  H   H77       1.0  0.8346240110612844  0.7393025922105547  0.31694112370741057  1.0000
  H   H78       1.0  0.16537598907153228  0.23930259177558985  0.1830588771507102  1.0000
  H   H79       1.0  0.16537598868415523  0.2606974081205725  0.683058876272952  1.0000
  H   H80       1.0  0.8346240111974532  0.7606974080167349  0.8169411228115758  1.0000
  H   H81       1.0  0.7301779908513065  0.7603392277072883  0.12093764638856197  1.0000
  H   H82       1.0  0.2698220087579643  0.2603392272723234  0.3790623544876354  1.0000
  H   H83       1.0  0.2698220088941331  0.23966077262383897  0.8790623535918007  1.0000
  H   H84       1.0  0.7301779909874753  0.7396607725200014  0.6209376454927272  1.0000
  H   H85       1.0  0.009543480264262418  0.6150235287707573  0.12134039805849514  1.0000
  H   H86       1.0  0.9904565198097354  0.11502352887459483  0.3786596015234552  1.0000
  H   H87       1.0  0.9904565200047232  0.38497647102156757  0.878659601903791  1.0000
  H   H88       1.0  0.009543480459249958  0.88497647091773  0.6213403984388309  1.0000
  H   H89       1.0  0.039479542914333296  0.5841087658975683  0.32984002812617624  1.0000
  H   H90       1.0  0.9605204572184833  0.08410876600140593  0.17015997273194458  1.0000
  H   H91       1.0  0.9605204573546522  0.41589123389475646  0.67015997183611  1.0000
  H   H92       1.0  0.03947954258577496  0.9158912343297214  0.8298400285245886  1.0000
  H   H93       1.0  0.9744821339846288  0.534704964991409  0.20303115050011  1.0000
  H   H94       1.0  0.025517866089369214  0.03470496509524657  0.29696884908184035  1.0000
  H   H95       1.0  0.025517866284356743  0.4652950348009158  0.796968849462176  1.0000
  H   H96       1.0  0.9744821336560703  0.9652950352358808  0.7030311508985224  1.0000
  H   H97       1.0  0.9335882104135496  0.7395947104782443  0.44386967095296775  1.0000
  H   H98       1.0  0.06641178966044843  0.23959471058208187  0.05613032862898256  1.0000
  H   H99       1.0  0.06641178985543597  0.2604052893140805  0.5561303290093182  1.0000
  H   H100      1.0  0.9335882106085371  0.7604052892102429  0.9438696713333037  1.0000
  H   H101      1.0  0.016741430587967388  0.6964126156278356  0.46314928703485514  1.0000
  H   H102      1.0  0.9832585694860306  0.19641261573167335  0.03685071254709519  1.0000
  H   H103      1.0  0.9832585696810181  0.3035873847032916  0.536850712927431  1.0000
  H   H104      1.0  0.01674143025940906  0.803587384599454  0.9631492874332674  1.0000
  H   H105      1.0  0.9852997935152906  0.738698087539682  0.2677958904216675  1.0000
  H   H106      1.0  0.014700206617526128  0.23869808710471702  0.2322041104364533  1.0000
  H   H107      1.0  0.014700206753694944  0.2613019127914454  0.7322041095406187  1.0000
  H   H108      1.0  0.9852997931279135  0.7613019126876077  0.7677958895439094  1.0000
  H   H109      1.0  0.8710354252856177  0.6258084813120444  0.5270480018484753  1.0000
  H   H110      1.0  0.12896457459599067  0.12580848141588194  0.9729519972360526  1.0000
  H   H111      1.0  0.12896457498336772  0.3741915184802805  0.47295199811381083  1.0000
  H   H112      1.0  0.8710354251494489  0.8741915183764428  0.027048002744310018  1.0000
  H   H113      1.0  0.8861928631508692  0.5423842914283507  0.42740153710139067  1.0000
  H   H114      1.0  0.11380713698194733  0.04238429153218822  0.07259846375673012  1.0000
  H   H115      1.0  0.11380713711811614  0.4576157083639742  0.5725984628608954  1.0000
  H   H116      1.0  0.8861928632870381  0.9576157082601366  0.927401536205556  1.0000
  H   H117      1.0  0.9550790181881224  0.5833225570714047  0.5636878968627885  1.0000
  H   H118      1.0  0.04492098175230478  0.08332255717524227  0.9363121034979098  1.0000
  H   H119      1.0  0.04492098155731725  0.4166774427209201  0.43631210311757407  1.0000
  H   H120      1.0  0.9550790185166808  0.9166774431558852  0.06368789646437625  1.0000
  H   H121      1.0  0.507290478622239  0.6801149511412381  0.43181730191024653  1.0000
  H   H122      1.0  0.49270952151057773  0.18011495124507565  0.06818269894787429  1.0000
  H   H123      1.0  0.49270952112320066  0.3198850486510868  0.5681826980701162  1.0000
  H   H124      1.0  0.5072904787584078  0.8198850485472491  0.9318173010144118  1.0000
  H   H125      1.0  0.6172153911253931  0.6315813400593788  0.6324296794994948  1.0000
  H   H126      1.0  0.3827846087562152  0.13158134016321643  0.8675703195850331  1.0000
  H   H127      1.0  0.38278460914359225  0.3684186602717485  0.36757032046279126  1.0000
  H   H128      1.0  0.6172153909892244  0.8684186601679109  0.13242968039532957  1.0000
  H   H129      1.0  0.4922119600235949  0.655209290381114  0.10458987373166162  1.0000
  H   H130      1.0  0.5077880400504031  0.1552092904849516  0.3954101258502887  1.0000
  H   H131      1.0  0.5077880402453906  0.3447907099500134  0.8954101262306244  1.0000
  H   H132      1.0  0.4922119602185824  0.8447907098461758  0.6045898741119974  1.0000
  H   H133      1.0  0.4913217082354391  0.6007331354650949  0.9159253013602922  1.0000
  H   H134      1.0  0.508678291704988  0.1007331355689325  0.5840746990004063  1.0000
  H   H135      1.0  0.5086782920335464  0.3992668643272299  0.08407469860199392  1.0000
  H   H136      1.0  0.49132170804045155  0.8992668647621948  0.41592530097995645  1.0000
  C   C1        1.0  0.40115596594444985  0.5892860118324997  0.4521255241232001  1.0000
  C   C2        1.0  0.5988440341883668  0.08928601193633735  0.047874476734920686  1.0000
  C   C3        1.0  0.5988440338009897  0.41071398795982506  0.5478744758571626  1.0000
  C   C4        1.0  0.40115596608061865  0.9107139883947899  0.9521255232273654  1.0000
  C   C5        1.0  0.4652557727112725  0.5983463657130506  0.5792476872547202  1.0000
  C   C6        1.0  0.5347442271703359  0.0983463658168882  0.9207523118298079  1.0000
  C   C7        1.0  0.5347442270341671  0.4016536340792742  0.42075231272564256  1.0000
  C   C8        1.0  0.4652557730986495  0.9016536345142391  0.07924768813247823  1.0000
  C   C9        1.0  0.5701933540208387  0.7135002212258555  0.7679867563314671  1.0000
  C   C10       1.0  0.42980664586076966  0.21350022132969312  0.732013242753061  1.0000
  C   C11       1.0  0.4298066457246009  0.2864997785664693  0.23201324364889564  1.0000
  C   C12       1.0  0.5701933544082158  0.7864997784626316  0.26798675720922516  1.0000
  C   C13       1.0  0.6369607479856816  0.7247345512572674  0.8851746278405542  1.0000
  C   C14       1.0  0.3630392519547456  0.22473455136110498  0.6148253725201442  1.0000
  C   C15       1.0  0.3630392522833039  0.27526544907385997  0.11482537212173191  1.0000
  C   C16       1.0  0.636960747790694  0.7752654489700224  0.3851746274602184  1.0000
  C   C17       1.0  0.3445359376895325  0.6419876453375848  0.1973657478409596  1.0000
  C   C18       1.0  0.6554640623844654  0.14198764544142237  0.3026342517409908  1.0000
  C   C19       1.0  0.6554640620559071  0.35801235445474006  0.8026342521394031  1.0000
  C   C20       1.0  0.34453593788452  0.8580123543509024  0.6973657482212953  1.0000
  C   C21       1.0  0.28536935973984084  0.5979053224207571  0.20182150328069284  1.0000
  C   C22       1.0  0.7146306403929759  0.09790532252459473  0.298178497577428  1.0000
  C   C23       1.0  0.7146306400055988  0.4020946773715676  0.7981784966996699  1.0000
  C   C24       1.0  0.28536935987600964  0.9020946772677301  0.7018215023848582  1.0000
  C   C25       1.0  0.23033426019520162  0.6031569112538245  0.07061626143171837  1.0000
  C   C26       1.0  0.769665739937615  0.10315691135766225  0.4293837394264024  1.0000
  C   C27       1.0  0.7696657400737839  0.39684308853850014  0.9293837385305678  1.0000
  C   C28       1.0  0.23033425980782457  0.8968430884346626  0.5706162605539602  1.0000
  C   C29       1.0  0.23285467480173516  0.6505375640843308  0.9331865904257209  1.0000
  C   C30       1.0  0.767145325138692  0.1505375641881684  0.5668134099349775  1.0000
  C   C31       1.0  0.7671453254672503  0.34946243570799396  0.06681340953656516  1.0000
  C   C32       1.0  0.2328546746067476  0.8494624356041564  0.4331865900453852  1.0000
  C   C33       1.0  0.2931779331102235  0.6943733913005216  0.9332359505662413  1.0000
  C   C34       1.0  0.7068220667713848  0.19437339140435914  0.5667640485182865  1.0000
  C   C35       1.0  0.7068220666352161  0.3056266090306058  0.06676404941412124  1.0000
  C   C36       1.0  0.2931779334976006  0.8056266089267682  0.4332359514439995  1.0000
  C   C37       1.0  0.34803480427075084  0.6911046163230753  0.06296414868010607  1.0000
  C   C38       1.0  0.65196519533852  0.19110461588811029  0.4370358521960913  1.0000
  C   C39       1.0  0.6519651954746888  0.30889538400805205  0.9370358513002567  1.0000
  C   C40       1.0  0.3480348044069196  0.8088953839042144  0.5629641477842714  1.0000
  C   C41       1.0  0.17394695962890677  0.6557919476862212  0.7866161728885056  1.0000
  C   C42       1.0  0.8260530403115203  0.15579194779005873  0.713383827472193  1.0000
  C   C43       1.0  0.8260530406400788  0.34420805210610367  0.21338382707378054  1.0000
  C   C44       1.0  0.17394695943391922  0.8442080525410687  0.28661617250816984  1.0000
  C   C45       1.0  0.1110162332061837  0.6076665899899175  0.8175071250090226  1.0000
  C   C46       1.0  0.8889837667342436  0.10766659009375519  0.6824928753516759  1.0000
  C   C47       1.0  0.8889837665392558  0.3923334098024072  0.18249287497134017  1.0000
  C   C48       1.0  0.11101623301119616  0.8923334102373721  0.31750712462868674  1.0000
  C   C49       1.0  0.201876909122821  0.632897811414356  0.6172766252532985  1.0000
  C   C50       1.0  0.7981230908176061  0.13289781097939102  0.8827233751074  1.0000
  C   C51       1.0  0.7981230906226185  0.3671021889167714  0.3827233747270641  1.0000
  C   C52       1.0  0.20187690892783347  0.8671021888129338  0.11727662487296281  1.0000
  C   C53       1.0  0.14843102092820695  0.7344006151099937  0.7701749639651057  1.0000
  C   C54       1.0  0.851568979535766  0.23440061467502873  0.7298250363775163  1.0000
  C   C55       1.0  0.8515689793407786  0.2655993852211337  0.2298250359971805  1.0000
  C   C56       1.0  0.14843102073321943  0.7655993851172961  0.2701749635847699  1.0000
  C   C57       1.0  0.7485982295795175  0.6685320174768894  0.959658182261825  1.0000
  C   C58       1.0  0.2514017703609097  0.168532017580727  0.5403418180988737  1.0000
  C   C59       1.0  0.25140177016592213  0.3314679823154354  0.040341817718537835  1.0000
  C   C60       1.0  0.7485982299080757  0.8314679822115978  0.45965818186341245  1.0000
  C   C61       1.0  0.7957559959867467  0.6136391332724129  0.9280672216002391  1.0000
  C   C62       1.0  0.2042440039536804  0.11363913283744792  0.5719327787604596  1.0000
  C   C63       1.0  0.20424400375869287  0.3863608670587145  0.07193277838012369  1.0000
  C   C64       1.0  0.795755996315305  0.8863608669548769  0.42806722120182666  1.0000
  C   C65       1.0  0.856735067484273  0.6039004221331729  0.03834841356741814  1.0000
  C   C66       1.0  0.1432649325897249  0.10390042223701053  0.4616515860145322  1.0000
  C   C67       1.0  0.14326493226116654  0.3960995776591519  0.9616515864129446  1.0000
  C   C68       1.0  0.8567350676792606  0.8960995780941169  0.5383484139477539  1.0000
  C   C69       1.0  0.8722670267435307  0.647613716490028  0.1829194944361911  1.0000
  C   C70       1.0  0.12773297338928588  0.14761371659386557  0.3170805064219297  1.0000
  C   C71       1.0  0.1277329735254547  0.3523862833022968  0.817080505526095  1.0000
  C   C72       1.0  0.8722670263561538  0.8523862831984592  0.682919493558433  1.0000
  C   C73       1.0  0.8246839632299984  0.7031436398797068  0.208460074158432  1.0000
  C   C74       1.0  0.1753160369028183  0.2031436399835444  0.2915399266996888  1.0000
  C   C75       1.0  0.17531603709780583  0.29685636045142055  0.7915399270800246  1.0000
  C   C76       1.0  0.8246839628426212  0.7968563603475829  0.708460073280674  1.0000
  C   C77       1.0  0.7637160462701525  0.7145839546644874  0.09848782739257506  1.0000
  C   C78       1.0  0.2362839538038454  0.21458395476832506  0.40151217218937524  1.0000
  C   C79       1.0  0.2362839534752871  0.2854160451278373  0.9015121725877876  1.0000
  C   C80       1.0  0.76371604646514  0.7854160450239998  0.5984878277729108  1.0000
  C   C81       1.0  0.9360926245534438  0.6346285621225992  0.31310769445192643  1.0000
  C   C82       1.0  0.06390737557937287  0.1346285622264368  0.18689230640619434  1.0000
  C   C83       1.0  0.06390737519199582  0.3653714376697256  0.6868923055284362  1.0000
  C   C84       1.0  0.9360926246896125  0.865371437565888  0.8131076935560917  1.0000
  C   C85       1.0  0.9928839764670131  0.58944053286038  0.23678506902732518  1.0000
  C   C86       1.0  0.007116023606984744  0.08944053296421756  0.2632149305546252  1.0000
  C   C87       1.0  0.0071160232784264164  0.41055946693194484  0.7632149309530375  1.0000
  C   C88       1.0  0.9928839766620006  0.9105594668281073  0.7367850694076609  1.0000
  C   C89       1.0  0.9694481136473293  0.706763166157051  0.37509496706913087  1.0000
  C   C90       1.0  0.03055188642666854  0.20676316626088864  0.12490503251281944  1.0000
  C   C91       1.0  0.030551886621656078  0.29323683363527375  0.6249050328931552  1.0000
  C   C92       1.0  0.9694481133187711  0.7932368340702387  0.8750949674675433  1.0000
  C   C93       1.0  0.9105896234836651  0.5941214716031497  0.46715884405937635  1.0000
  C   C94       1.0  0.08941037659033282  0.09412147170698727  0.032841155522573946  1.0000
  C   C95       1.0  0.08941037678532036  0.40587852818917514  0.5328411559029097  1.0000
  C   C96       1.0  0.9105896236786526  0.9058785280853374  0.9671588444397122  1.0000
  C   C97       1.0  0.6596843767317724  0.5651910360819427  0.3149400037907322  1.0000
  C   C98       1.0  0.3403156233422254  0.06519103618578032  0.18505999579121812  1.0000
  C   C99       1.0  0.3403156230136671  0.434808963710382  0.6850599961896304  1.0000
  C   C100      1.0  0.6596843769267601  0.9348089636065444  0.8149400041710679  1.0000
  C   C101      1.0  0.5724039158007174  0.5847819172460269  0.10280330696433586  1.0000
  C   C102      1.0  0.4275960843320994  0.0847819173498645  0.3971966938937849  1.0000
  C   C103      1.0  0.4275960845270869  0.4152180825462979  0.8971966942741207  1.0000
  C   C104      1.0  0.5724039154133402  0.9152180824424604  0.6028033060865777  1.0000
  N   N1        1.0  0.5125552971841966  0.6479347948559354  0.540407398573927  1.0000
  N   N2        1.0  0.48744470275623064  0.14793479495977296  0.9595926017867716  1.0000
  N   N3        1.0  0.4874447025612432  0.35206520493638943  0.4595926014064358  1.0000
  N   N4        1.0  0.5125552975127549  0.8520652053713543  0.0404073981755145  1.0000
  N   N5        1.0  0.5717211000324915  0.6601373875516562  0.6518362980623722  1.0000
  N   N6        1.0  0.42827889990793555  0.16013738765549376  0.8481637022983263  1.0000
  N   N7        1.0  0.4282789002364939  0.33986261224066866  0.3481637018999139  1.0000
  N   N8        1.0  0.5717210998375041  0.8398626126756336  0.15183629768203644  1.0000
  N   N9        1.0  0.6023637845707672  0.602572004986877  0.2562914209077028  1.0000
  N   N10       1.0  0.3976362155032307  0.10257200509071468  0.24370857867424753  1.0000
  N   N11       1.0  0.3976362151746724  0.3974279948054477  0.7437085790726599  1.0000
  N   N12       1.0  0.6023637847657547  0.89742799470161  0.7562914212880386  1.0000
  N   N13       1.0  0.5138224530513573  0.6163243349804184  0.03477703147068495  1.0000
  N   N14       1.0  0.48617754708145944  0.11632433508425598  0.46522296938743585  1.0000
  N   N15       1.0  0.4861775472176283  0.3836756648119064  0.9652229684916012  1.0000
  N   N16       1.0  0.5138224526639802  0.8836756647080688  0.5347770305929268  1.0000
  O   O1        1.0  0.401695145668627  0.6409550631189629  0.3183187309685445  1.0000
  O   O2        1.0  0.598304854405371  0.1409550626839979  0.18168126861340583  1.0000
  O   O3        1.0  0.5983048546003583  0.35904493721216446  0.6816812689937415  1.0000
  O   O4        1.0  0.40169514534006867  0.8590449371083269  0.8183187313669569  1.0000
  O   O5        1.0  0.47122295831168753  0.5604851879585201  0.7107239356410913  1.0000
  O   O6        1.0  0.5287770416287396  0.06048518806235768  0.7892760647196072  1.0000
  O   O7        1.0  0.528777041433752  0.43951481183380475  0.28927606433927144  1.0000
  O   O8        1.0  0.471222958640246  0.9395148117299671  0.21072393524267893  1.0000
  O   O9        1.0  0.5170781804801904  0.7516247882961511  0.7799853469110708  1.0000
  O   O10       1.0  0.482921819401418  0.25162478839998875  0.7200146521734571  1.0000
  O   O11       1.0  0.4829218197887951  0.24837521149617367  0.22001465305121526  1.0000
  O   O12       1.0  0.5170781803440215  0.7483752113923361  0.27998534780690554  1.0000
  O   O13       1.0  0.6889358663648595  0.6742008695517405  0.8463841458191439  1.0000
  O   O14       1.0  0.3110641340991136  0.17420086965557818  0.653615854523478  1.0000
  O   O15       1.0  0.311064133904126  0.3257991307793867  0.15361585414314224  1.0000
  O   O16       1.0  0.6889358661698718  0.8257991306755491  0.34638414543880813  1.0000
  S   S1        1.0  0.7051499387615907  0.5739006456670288  0.5067845615981044  1.0000
  S   S2        1.0  0.2948500611788365  0.07390064577086634  0.9932154387625942  1.0000
  S   S3        1.0  0.29485006098384897  0.42609935412529604  0.4932154383822583  1.0000
  S   S4        1.0  0.7051499390901489  0.9260993540214585  0.0067845611996920005  1.0000
  S   S5        1.0  0.6900450838669624  0.5003742844750025  0.17797311144673095  1.0000
  S   S6        1.0  0.3099549162070355  0.00037428457884017383  0.3220268881352194  1.0000
  S   S7        1.0  0.3099549164020231  0.49962571531732225  0.8220268885155552  1.0000
  S   S8        1.0  0.690045083538404  0.9996257152134846  0.6779731118451433  1.0000
  S   S9        1.0  0.6121147357715305  0.5186711170909979  0.9817724650812665  1.0000
  S   S10       1.0  0.38788526416889657  0.018671117194835517  0.5182275352794322  1.0000
  S   S11       1.0  0.3878852644974549  0.48132888270132684  0.01822753488101974  1.0000
  S   S12       1.0  0.612114735576543  0.9813288831362917  0.48177246470093055  1.0000
