data_image0
_chemical_formula_structural       H28C14O6Br4
_chemical_formula_sum              "H28 C14 O6 Br4"
_cell_length_a       11.91566761872285
_cell_length_b       10.546514938736388
_cell_length_c       4.301644161314727
_cell_angle_alpha    90.0
_cell_angle_beta     90.0
_cell_angle_gamma    90.0

_space_group_name_H-M_alt    "P 1"
_space_group_IT_number       1

loop_
  _space_group_symop_operation_xyz
  'x, y, z'

loop_
  _atom_site_type_symbol
  _atom_site_label
  _atom_site_symmetry_multiplicity
  _atom_site_fract_x
  _atom_site_fract_y
  _atom_site_fract_z
  _atom_site_occupancy
  H   H1        1.0  0.5000000000535912  0.987111260968576  0.5306119414820193  1.0000
  H   H2        1.0  0.0  0.012888739151237229  0.030611941634836118  1.0000
  H   H3        1.0  0.5000000000535912  0.833127492924478  0.7179623404870558  1.0000
  H   H4        1.0  0.0  0.1668725071953354  0.2179623406398727  1.0000
  H   H5        1.0  0.5000000000535912  0.41058655159111945  0.11205766026278537  1.0000
  H   H6        1.0  0.0  0.5894134475805133  0.6120576601099684  1.0000
  H   H7        1.0  0.7027749990979986  0.6688372842569691  0.7253089430452603  1.0000
  H   H8        1.0  0.797225000223544  0.3311627158628442  0.22530894319807712  1.0000
  H   H9        1.0  0.29722500100918403  0.6688372842569691  0.7253089430452603  1.0000
  H   H10       1.0  0.20277499904440724  0.3311627158628442  0.22530894319807712  1.0000
  H   H11       1.0  0.7031618125059823  0.7619210930509309  0.37847111684440526  1.0000
  H   H12       1.0  0.7968381876547915  0.23807890706888238  0.8784711166915884  1.0000
  H   H13       1.0  0.29683818760120023  0.7619210930509309  0.37847111684440526  1.0000
  H   H14       1.0  0.20316181245239098  0.23807890706888238  0.8784711166915884  1.0000
  H   H15       1.0  0.7767875184313068  0.6149302919185011  0.3895268453557717  1.0000
  H   H16       1.0  0.723212481729467  0.38506970820131214  0.8895268452029549  1.0000
  H   H17       1.0  0.22321248167587573  0.6149302919185011  0.3895268453557717  1.0000
  H   H18       1.0  0.2767875183777155  0.38506970820131214  0.8895268452029549  1.0000
  H   H19       1.0  0.5951895157646355  0.590922424725328  0.10018786860052141  1.0000
  H   H20       1.0  0.9048104843961383  0.40907757539448525  0.6001878684477046  1.0000
  H   H21       1.0  0.40481048434254696  0.590922424725328  0.10018786860052141  1.0000
  H   H22       1.0  0.09518951571104427  0.40907757539448525  0.6001878684477046  1.0000
  H   H23       1.0  0.57491240014416  0.22220810131244975  0.40756431825922207  1.0000
  H   H24       1.0  0.9250876000166138  0.777791897859183  0.9075643181064053  1.0000
  H   H25       1.0  0.4250875999630226  0.22220810131244975  0.40756431825922207  1.0000
  H   H26       1.0  0.0749124000905687  0.777791897859183  0.9075643181064053  1.0000
  H   H27       1.0  0.5000000000535912  0.27197913591953593  0.7453521908748643  1.0000
  H   H28       1.0  0.0  0.7280208632520968  0.24535219102768108  1.0000
  C   C1        1.0  0.5000000000535912  0.9358284719959373  0.7504545143532646  1.0000
  C   C2        1.0  0.0  0.06417152812387596  0.25045451450608147  1.0000
  C   C3        1.0  0.5986629098978328  0.5969016605550128  0.3574144402334984  1.0000
  C   C4        1.0  0.9013370894237098  0.40309833956480035  0.857414442405374  1.0000
  C   C5        1.0  0.4013370893701186  0.5969016605550128  0.3574144402334984  1.0000
  C   C6        1.0  0.09866291068347267  0.40309833956480035  0.857414442405374  1.0000
  C   C7        1.0  0.5000000000535912  0.40621315428708776  0.3698374250262868  1.0000
  C   C8        1.0  0.0  0.5937868458327255  0.86983742487347  1.0000
  C   C9        1.0  0.5000000000535912  0.27229978402174254  0.4906317540116924  1.0000
  C   C10       1.0  0.0  0.7277002160980707  0.9906317538588756  1.0000
  C   C11       1.0  0.7017097881164455  0.6650046788669611  0.47069494687844293  1.0000
  C   C12       1.0  0.7982902120443283  0.3349953212528521  0.9706949490503186  1.0000
  C   C13       1.0  0.2982902119907371  0.6650046788669611  0.47069494687844293  1.0000
  C   C14       1.0  0.20170978806285414  0.3349953212528521  0.9706949490503186  1.0000
  O   O1        1.0  0.5000000000535912  0.662660861962174  0.46051709200292046  1.0000
  O   O2        1.0  0.0  0.3373391381576392  0.9605170918501037  1.0000
  O   O3        1.0  0.5979900789447938  0.4705960906356665  0.4782434234102805  1.0000
  O   O4        1.0  0.9020099203767488  0.5294039085359662  0.9782434232574636  1.0000
  O   O5        1.0  0.40200992032315747  0.4705960906356665  0.4782434234102805  1.0000
  O   O6        1.0  0.09799007973043378  0.5294039085359662  0.9782434232574636  1.0000
  Br  Br1       1.0  0.636055354388304  0.9816876257362485  0.9739256370102806  1.0000
  Br  Br2       1.0  0.8639446457724699  0.01831237438356483  0.47392563716309744  1.0000
  Br  Br3       1.0  0.36394464571887847  0.9816876257362485  0.9739256370102806  1.0000
  Br  Br4       1.0  0.13605535433471275  0.01831237438356483  0.47392563716309744  1.0000
