data_image0
_chemical_formula_structural       H28C16N12O12S4
_chemical_formula_sum              "H28 C16 N12 O12 S4"
_cell_length_a       4.622896536466385
_cell_length_b       15.043644364244457
_cell_length_c       10.900429283518996
_cell_angle_alpha    90.0
_cell_angle_beta     101.46967770535515
_cell_angle_gamma    90.0

_space_group_name_H-M_alt    "P 1"
_space_group_IT_number       1

loop_
  _space_group_symop_operation_xyz
  'x, y, z'

loop_
  _atom_site_type_symbol
  _atom_site_label
  _atom_site_symmetry_multiplicity
  _atom_site_fract_x
  _atom_site_fract_y
  _atom_site_fract_z
  _atom_site_occupancy
  H   H1        1.0  0.6580397367052673  0.2736309095277353  0.34706647833466964  1.0000
  H   H2        1.0  0.8419602622979739  0.7736309100513963  0.15293352165070592  1.0000
  H   H3        1.0  0.34196026217442677  0.7263690901901217  0.6529335221863546  1.0000
  H   H4        1.0  0.15803973879491806  0.22636909033119326  0.8470664781420574  1.0000
  H   H5        1.0  0.6726125076198077  0.15480975577535633  0.34613860582299555  1.0000
  H   H6        1.0  0.8273874913834335  0.6548097556342848  0.15386139416238007  1.0000
  H   H7        1.0  0.32738749347308427  0.8451902446072334  0.6538613939697678  1.0000
  H   H8        1.0  0.17261250749626056  0.3451902440835722  0.8461386063586444  1.0000
  H   H9        1.0  0.3282735914878907  0.2115581213528535  0.2828074540114073  1.0000
  H   H10       1.0  0.1717264068483483  0.7115581212117821  0.21719254615479175  1.0000
  H   H11       1.0  0.6717264073918033  0.7884418790297361  0.7171925465096171  1.0000
  H   H12       1.0  0.8282735920373276  0.288441878506075  0.7828074534493453  1.0000
  H   H13       1.0  0.26717684035632494  0.11304520891506799  0.0949638234223592  1.0000
  H   H14       1.0  0.23282316018713006  0.6130452087739965  0.405036176932466  1.0000
  H   H15       1.0  0.7328231585293511  0.886954790802789  0.9050361761817779  1.0000
  H   H16       1.0  0.7671768408997799  0.38695479094386054  0.5949638237771845  1.0000
  H   H17       1.0  0.624627661227816  0.058373566187670485  0.14028935587111785  1.0000
  H   H18       1.0  0.8753723377754252  0.5583735667113315  0.35971064411425774  1.0000
  H   H19       1.0  0.3753723376518781  0.9416264335301865  0.8597106446499064  1.0000
  H   H20       1.0  0.1246276611102507  0.44162643367125803  0.6402893554898793  1.0000
  H   H21       1.0  0.5201007241807196  0.10838395341725353  0.988631040794313  1.0000
  H   H22       1.0  0.9798992752484113  0.6083839532761821  0.5113689591646494  1.0000
  H   H23       1.0  0.4798992769121723  0.891616046965336  0.011368958998450333  1.0000
  H   H24       1.0  0.020100723637264718  0.39161604644167497  0.48863104043948774  1.0000
  H   H25       1.0  0.36501330429618  0.6374500664740768  0.9769226521158013  1.0000
  H   H26       1.0  0.13498669446594888  0.13745006661514822  0.5230773480239844  1.0000
  H   H27       1.0  0.6349866945835141  0.3625499332437803  0.023077348405222964  1.0000
  H   H28       1.0  0.8650133044197271  0.8625499331027088  0.4769226515801526  1.0000
  C   C1        1.0  0.5695040819711439  0.2135813079732671  0.29660936782052977  1.0000
  C   C2        1.0  0.9304959170320973  0.7135813084969282  0.20339063216484587  1.0000
  C   C3        1.0  0.4304959191217481  0.7864186917445899  0.7033906319722336  1.0000
  C   C4        1.0  0.06950408185357874  0.2864186918856614  0.7966093674392912  1.0000
  C   C5        1.0  0.4997357837554924  0.11268284459243375  0.0869140009769272  1.0000
  C   C6        1.0  0.00026421679394464636  0.6126828444513622  0.4130859984610109  1.0000
  C   C7        1.0  0.5002642151301837  0.8873171557901558  0.9130859986272098  1.0000
  C   C8        1.0  0.9997357842989473  0.3873171559312273  0.5869140013317525  1.0000
  C   C9        1.0  0.20443786020873556  0.4804713309482051  0.14811980995891605  1.0000
  C   C10       1.0  0.2955621381275034  0.9804713308071336  0.351880190207283  1.0000
  C   C11       1.0  0.7955621386769404  0.5195286694343845  0.851880189645221  1.0000
  C   C12       1.0  0.7044378607521905  0.0195286689107234  0.6481198103137413  1.0000
  C   C13       1.0  0.023397119865062745  0.5331318087432602  0.9577346597123289  1.0000
  C   C14       1.0  0.47660288110428217  0.03313180888433163  0.5422653406160832  1.0000
  C   C15       1.0  0.9766028790146312  0.4668681916393294  0.04226534080869549  1.0000
  C   C16       1.0  0.5233971199886099  0.966868191498258  0.45773465917668005  1.0000
  N   N1        1.0  0.2569035315595747  0.432193855596143  0.26268484050054225  1.0000
  N   N2        1.0  0.2430964689898623  0.9321938554550715  0.23731515893739577  1.0000
  N   N3        1.0  0.7430964695333173  0.5678061447864466  0.737315159292221  1.0000
  N   N4        1.0  0.7569035321030296  0.06780614426278551  0.7626848408553676  1.0000
  N   N5        1.0  0.3747626591830107  0.5498155227372266  0.12871203499677053  1.0000
  N   N6        1.0  0.1252373413604443  0.049815522878298095  0.37128796535805475  1.0000
  N   N7        1.0  0.6252373419098812  0.45018447698063047  0.8712879647959929  1.0000
  N   N8        1.0  0.8747626575192498  0.9501844768395589  0.6287120351629696  1.0000
  N   N9        1.0  0.26319461662746896  0.5810998171943986  0.01381468543606815  1.0000
  N   N10       1.0  0.2368053817147521  0.08109981733547011  0.48618531381324365  1.0000
  N   N11       1.0  0.736805382258207  0.41890018318819094  0.986185314168069  1.0000
  N   N12       1.0  0.763194617170924  0.9189001830471194  0.5138146857908934  1.0000
  O   O1        1.0  0.4744081207552732  0.2882071993342919  0.0731632793198761  1.0000
  O   O2        1.0  0.025591877586947826  0.7882071991932205  0.42683671992943567  1.0000
  O   O3        1.0  0.5255918781304028  0.7117928010482976  0.926836720284261  1.0000
  O   O4        1.0  0.9744081212987282  0.21179280118936913  0.5731632796747014  1.0000
  O   O5        1.0  0.06929933172892949  0.3742208751876952  0.27302157248223297  1.0000
  O   O6        1.0  0.4307006688205075  0.8742208757113563  0.22697842695570508  1.0000
  O   O7        1.0  0.9307006693639625  0.6257791245301618  0.7269784273105303  1.0000
  O   O8        1.0  0.5692993300651685  0.1257791246712333  0.7730215726484321  1.0000
  O   O9        1.0  0.476750248014915  0.4496588317441082  0.3451014748938826  1.0000
  O   O10       1.0  0.023249752528539887  0.9496588316030367  0.15489852546094268  1.0000
  O   O11       1.0  0.5232497530779769  0.5503411686384814  0.6548985248988807  1.0000
  O   O12       1.0  0.9767502485583701  0.0503411687795529  0.8451014752487078  1.0000
  S   S1        1.0  0.6683015240607736  0.21544487967977682  0.14603324420838668  1.0000
  S   S2        1.0  0.8316984749424676  0.7154448802034379  0.35396675577698894  1.0000
  S   S3        1.0  0.3316984748189204  0.7845551200380803  0.8539667563126375  1.0000
  S   S4        1.0  0.16830152394320846  0.28455512017915174  0.6460332438271482  1.0000
