data_image0
_chemical_formula_structural       H76C68N16O16F12
_chemical_formula_sum              "H76 C68 N16 O16 F12"
_cell_length_a       10.601890825490294
_cell_length_b       12.476229082215227
_cell_length_c       15.060957425918007
_cell_angle_alpha    104.61326246315153
_cell_angle_beta     102.80772579124418
_cell_angle_gamma    101.48544561169643

_space_group_name_H-M_alt    "P 1"
_space_group_IT_number       1

loop_
  _space_group_symop_operation_xyz
  'x, y, z'

loop_
  _atom_site_type_symbol
  _atom_site_label
  _atom_site_symmetry_multiplicity
  _atom_site_fract_x
  _atom_site_fract_y
  _atom_site_fract_z
  _atom_site_occupancy
  H   H1        1.0  0.2937128211641287  0.04445150420819151  0.48282646523083617  1.0000
  H   H2        1.0  0.7062871788610194  0.9555484960408004  0.5171735351693273  1.0000
  H   H3        1.0  0.36980388283045684  0.8481440506427423  0.14300792618466798  1.0000
  H   H4        1.0  0.6301961171946914  0.1518559496062497  0.8569920742154957  1.0000
  H   H5        1.0  0.6017215380047023  0.10256876623661877  0.3795567973487742  1.0000
  H   H6        1.0  0.39827846202044603  0.8974312340123732  0.6204432030513894  1.0000
  H   H7        1.0  0.31040191882742957  0.8233508447709347  0.3769477848997328  1.0000
  H   H8        1.0  0.6895980811977186  0.17664915547805732  0.6230522155004308  1.0000
  H   H9        1.0  0.0922841201414551  0.9798239729366232  0.25321490492531545  1.0000
  H   H10       1.0  0.9077158798848597  0.020176027311858177  0.7467850948109558  1.0000
  H   H11       1.0  0.1117222257536165  0.8373775427918231  0.23711887537996118  1.0000
  H   H12       1.0  0.8882777742726984  0.1626224574566582  0.7628811243563101  1.0000
  H   H13       1.0  0.38165022412553423  0.21989579395405492  0.43597494394595426  1.0000
  H   H14       1.0  0.6183497759007804  0.7801042062944264  0.5640250557903169  1.0000
  H   H15       1.0  0.2733114862802881  0.19539805632318907  0.31971434792023257  1.0000
  H   H16       1.0  0.7266885137460264  0.8046019439252923  0.6802856518160387  1.0000
  H   H17       1.0  0.4500282586497723  0.2489401577972788  0.34386935512016675  1.0000
  H   H18       1.0  0.5499717413753759  0.7510598424517131  0.6561306452799968  1.0000
  H   H19       1.0  0.08316039748602698  0.6648267092025052  0.3571508369382728  1.0000
  H   H20       1.0  0.9168396025402876  0.33517329104597615  0.6428491627979984  1.0000
  H   H21       1.0  0.2122430106007271  0.46033402535805923  0.02387492812273016  1.0000
  H   H22       1.0  0.7877569891551951  0.5396659740305906  0.9761250720560101  1.0000
  H   H23       1.0  0.17339930555737953  0.6975122242422956  0.11995489943000004  1.0000
  H   H24       1.0  0.8266006944689351  0.30248777600618565  0.8800451003062713  1.0000
  H   H25       1.0  0.8812270504190914  0.41719452172225896  0.11426870750875032  1.0000
  H   H26       1.0  0.11877294960722337  0.5828054785262224  0.8857312922275209  1.0000
  H   H27       1.0  0.38531052233159174  0.5498507920762342  0.2607913695563343  1.0000
  H   H28       1.0  0.6146894774243304  0.4501492073124154  0.7392086306224059  1.0000
  H   H29       1.0  0.3627088452518797  0.6890598019204526  0.26505843931678724  1.0000
  H   H30       1.0  0.6372911547744351  0.31094019832802877  0.734941560419484  1.0000
  H   H31       1.0  0.2014455710926737  0.3178597438256372  0.1711711778092835  1.0000
  H   H32       1.0  0.7985544289324744  0.6821402564233547  0.8288288225908801  1.0000
  H   H33       1.0  0.09054918680800847  0.2994755131204637  0.056841429955977074  1.0000
  H   H34       1.0  0.9094508132171397  0.7005244871285282  0.9431585704441865  1.0000
  H   H35       1.0  0.024586546049129986  0.27005860570194806  0.14961771179077377  1.0000
  H   H36       1.0  0.9754134539771847  0.7299413945465333  0.8503822879454975  1.0000
  H   H37       1.0  0.8545150524365197  0.8033511206425931  0.11117014821083364  1.0000
  H   H38       1.0  0.14548494732056905  0.19664887874554624  0.8888298513040144  1.0000
  H   H39       1.0  0.4404036794638493  0.6612758140702983  0.09225571715568914  1.0000
  H   H40       1.0  0.5595963205612989  0.3387241861786936  0.9077442832444744  1.0000
  H   H41       1.0  0.6596324012770892  0.6324384696286466  0.06756539192499156  1.0000
  H   H42       1.0  0.34036759874805894  0.3675615306203453  0.9324346084751719  1.0000
  H   H43       1.0  0.8249678861259094  0.0012136950803296402  0.1803706326661857  1.0000
  H   H44       1.0  0.17503211363117938  0.9987863043078096  0.8196293668486622  1.0000
  H   H45       1.0  0.5993299447814949  0.014421867802422177  0.2018390532745364  1.0000
  H   H46       1.0  0.40067005497442737  0.9855781315862275  0.7981609469042038  1.0000
  H   H47       1.0  0.6992952827746253  0.2886640909626188  0.3127083909978769  1.0000
  H   H48       1.0  0.3007047172516894  0.7113359092858625  0.6872916087383943  1.0000
  H   H49       1.0  0.9241709485419514  0.36605288325515556  0.29083146396356924  1.0000
  H   H50       1.0  0.07582905148436317  0.6339471169933257  0.709168535772702  1.0000
  H   H51       1.0  0.11254369976056229  0.28489682859644144  0.3465846859338763  1.0000
  H   H52       1.0  0.8874563002645859  0.7151031716525507  0.6534153144662872  1.0000
  H   H53       1.0  0.06988575793039178  0.12605369400595462  0.42101804145999366  1.0000
  H   H54       1.0  0.9301142420947563  0.8739463062430373  0.5789819589401699  1.0000
  H   H55       1.0  0.8400774036312096  0.0620778888706757  0.44066456211636135  1.0000
  H   H56       1.0  0.1599225963951051  0.9379221113778057  0.5593354376199099  1.0000
  H   H57       1.0  0.46681477627863005  0.4315336562270588  0.17893268727892006  1.0000
  H   H58       1.0  0.5331852237465181  0.5684663440219332  0.8210673131212435  1.0000
  H   H59       1.0  0.7280379932092735  0.17128297811384469  0.06302108052917185  1.0000
  H   H60       1.0  0.271962007783823  0.8287170221372298  0.9369789200233835  1.0000
  H   H61       1.0  0.4988351727940271  0.08551284531908383  0.07455974256695078  1.0000
  H   H62       1.0  0.501164828200236  0.9144871549314803  0.9254402573217122  1.0000
  H   H63       1.0  0.3658674674209504  0.21783516867528865  0.13380439230873786  1.0000
  H   H64       1.0  0.634132533572146  0.782164831575786  0.8661956082438175  1.0000
  H   H65       1.0  0.700685845784254  0.5025897786079124  0.16909109544355624  1.0000
  H   H66       1.0  0.2993141542420608  0.497410221640569  0.8309089042927151  1.0000
  H   H67       1.0  0.8965870458751577  0.5215856544455956  0.41341738042794934  1.0000
  H   H68       1.0  0.10341295415115698  0.4784143458028857  0.5865826193083218  1.0000
  H   H69       1.0  0.6694555440767763  0.5418516594866264  0.42567234974107615  1.0000
  H   H70       1.0  0.3305444559483719  0.4581483407623656  0.5743276506590873  1.0000
  H   H71       1.0  0.5946408276644851  0.7083566961547078  0.38617941479739704  1.0000
  H   H72       1.0  0.40535917209260375  0.2916433032334314  0.6138205847174508  1.0000
  H   H73       1.0  0.7455332526705414  0.8424291062592356  0.33332823932926653  1.0000
  H   H74       1.0  0.25446674735460667  0.15757089398975635  0.666671761070897  1.0000
  H   H75       1.0  0.9689115776710154  0.808323578272951  0.3231048123188142  1.0000
  H   H76       1.0  0.03108842208607342  0.19167642111518815  0.6768951871960337  1.0000
  C   C1        1.0  0.15704997635754694  0.979595105492298  0.09777596312631705  1.0000
  C   C2        1.0  0.8429500233983751  0.02040489389635161  0.9022240370524232  1.0000
  C   C3        1.0  0.16428222983054  0.9275790249025971  0.2512903926456621  1.0000
  C   C4        1.0  0.835717770194608  0.07242097534639477  0.7487096077545015  1.0000
  C   C5        1.0  0.27480826806028  0.9762735522286009  0.34623920519352075  1.0000
  C   C6        1.0  0.7251917319660347  0.02372644801988045  0.6537607945427505  1.0000
  C   C7        1.0  0.38247632147570415  0.06938121027469389  0.32894541880306893  1.0000
  C   C8        1.0  0.6175236785506105  0.9306187899737873  0.6710545809332022  1.0000
  C   C9        1.0  0.37123125197639  0.1910813957379042  0.35926766538999283  1.0000
  C   C10       1.0  0.6287687480487582  0.8089186045110878  0.6407323350101708  1.0000
  C   C11       1.0  0.48816231975211055  0.9472311086776416  0.3887837122808578  1.0000
  C   C12       1.0  0.5118376802742042  0.05276889157083989  0.6112162874554135  1.0000
  C   C13       1.0  0.23904126903998915  0.9406665377215838  0.17656488831672026  1.0000
  C   C14       1.0  0.7609587309863256  0.05933346252689749  0.823435111419551  1.0000
  C   C15       1.0  0.2980754612987927  0.570422877057569  0.4133796959597277  1.0000
  C   C16       1.0  0.7019245384571294  0.42957712233108075  0.5866203042190126  1.0000
  C   C17       1.0  0.22336615519699426  0.5868923736980669  0.31954087485565297  1.0000
  C   C18       1.0  0.7766338448293205  0.41310762655041455  0.6804591248806182  1.0000
  C   C19       1.0  0.3109570829218183  0.5991842150359589  0.25289387772483896  1.0000
  C   C20       1.0  0.6890429180712783  0.4008157852151156  0.7471061228277163  1.0000
  C   C21       1.0  0.210287925335637  0.5433789348490725  0.1533969397827506  1.0000
  C   C22       1.0  0.7897120746906776  0.45662106539940883  0.8466030599535207  1.0000
  C   C23       1.0  0.09873406762491249  0.44956336512065126  0.16764919410290935  1.0000
  C   C24       1.0  0.9012659331001246  0.5504366342695706  0.8323508055643303  1.0000
  C   C25       1.0  0.10454419391023632  0.326619231444385  0.1341450061594944  1.0000
  C   C26       1.0  0.8954558061160782  0.6733807688040964  0.8658549935767768  1.0000
  C   C27       1.0  0.9972250542677082  0.5721945245818835  0.10464780544976066  1.0000
  C   C28       1.0  0.0027749467253883994  0.4278054756691911  0.8953521951027946  1.0000
  C   C29       1.0  0.7592236338646963  0.8147452338202653  0.12209308458821932  1.0000
  C   C30       1.0  0.24077636616161838  0.18525476642821603  0.8779069151480519  1.0000
  C   C31       1.0  0.5287698264398681  0.7340801609998293  0.11121718657213522  1.0000
  C   C32       1.0  0.4712301735864466  0.2659198392486521  0.888782813164136  1.0000
  C   C33       1.0  0.650308657978039  0.718424814854465  0.09766006570371938  1.0000
  C   C34       1.0  0.3496913417790496  0.2815751845336741  0.9023399338111284  1.0000
  C   C35       1.0  0.7428333006609763  0.9235821233217054  0.16031892039523105  1.0000
  C   C36       1.0  0.25716669936417186  0.07641787692728629  0.8396810800049325  1.0000
  C   C37       1.0  0.6179597665722314  0.9318629051910795  0.17207669644814733  1.0000
  C   C38       1.0  0.3820402334540833  0.06813709505740173  0.8279233032881238  1.0000
  C   C39       1.0  0.7845682175732008  0.2556351660332699  0.3365230589729138  1.0000
  C   C40       1.0  0.21543178245311395  0.7443648342152116  0.6634769407633574  1.0000
  C   C41       1.0  0.9089907225707891  0.29834320115366125  0.3239784474118996  1.0000
  C   C42       1.0  0.09100927745435894  0.7016567990953307  0.676021552988264  1.0000
  C   C43       1.0  0.013986262546616546  0.2522600453836295  0.35496496390101834  1.0000
  C   C44       1.0  0.9860137374796981  0.7477399548648519  0.6450350358352528  1.0000
  C   C45       1.0  0.990854015730314  0.16517499386791282  0.39691677790912633  1.0000
  C   C46       1.0  0.009145984296000708  0.8348250063805684  0.6030832218271448  1.0000
  C   C47       1.0  0.8631354610028159  0.12874484889397392  0.4071036490428516  1.0000
  C   C48       1.0  0.13686453875427293  0.8712551504941652  0.5928963504719963  1.0000
  C   C49       1.0  0.5228842286257285  0.3709449196141946  0.15587903833268155  1.0000
  C   C50       1.0  0.4771157711301937  0.6290550797744551  0.8441209618460587  1.0000
  C   C51       1.0  0.6675522040152714  0.22575381267208747  0.09015943910458406  1.0000
  C   C52       1.0  0.3324477960110433  0.774246187576394  0.9098405606316871  1.0000
  C   C53       1.0  0.5401198746863234  0.17840780896987748  0.0961178562332313  1.0000
  C   C54       1.0  0.4598801253388247  0.8215921912791144  0.9038821441669324  1.0000
  C   C55       1.0  0.46625427893516286  0.2524470128869714  0.12936790598130268  1.0000
  C   C56       1.0  0.5337457208207594  0.7475529865016785  0.8706320941974376  1.0000
  C   C57       1.0  0.6515630717841551  0.4105755335293292  0.14859296518257514  1.0000
  C   C58       1.0  0.34843692824215955  0.589424466719152  0.851407034553696  1.0000
  C   C59       1.0  0.8583178874240662  0.5905150090425845  0.39518184800927075  1.0000
  C   C60       1.0  0.14168211260224842  0.4094849912058968  0.6048181517270006  1.0000
  C   C61       1.0  0.7323547194795675  0.6021529851660442  0.40185089846259237  1.0000
  C   C62       1.0  0.26764528054558057  0.3978470150829477  0.5981491019375711  1.0000
  C   C63       1.0  0.6903817587108888  0.6936074861585781  0.379508020975409  1.0000
  C   C64       1.0  0.30961824104619995  0.3063925132295612  0.620491978539439  1.0000
  C   C65       1.0  0.7750406086105812  0.7696360108573744  0.35029799547656437  1.0000
  C   C66       1.0  0.22495939114650765  0.23036398853076476  0.6497020040382835  1.0000
  C   C67       1.0  0.8985128421346343  0.7511047533436097  0.3448660991325502  1.0000
  C   C68       1.0  0.10148715762245447  0.24889524604452956  0.6551339003822977  1.0000
  N   N1        1.0  0.506809934426637  0.05299643192605193  0.3752874613425316  1.0000
  N   N2        1.0  0.49319006533045173  0.9470035674620872  0.6247125381723162  1.0000
  N   N3        1.0  0.3534086926920628  0.8981355309978922  0.36590662343471175  1.0000
  N   N4        1.0  0.6465913073330853  0.10186446925109964  0.6340933769654519  1.0000
  N   N5        1.0  0.13166944627764465  0.6170402259037485  0.12295163899215265  1.0000
  N   N6        1.0  0.8683305537486701  0.38295977434473283  0.8770483607441185  1.0000
  N   N7        1.0  0.976089062617147  0.4686827266563095  0.12153386369910486  1.0000
  N   N8        1.0  0.023910938377115984  0.5313172735942544  0.8784661361895582  1.0000
  N   N9        1.0  0.5131132200926872  0.8390951930849785  0.147571816152283  1.0000
  N   N10       1.0  0.48688677993362744  0.16090480716350283  0.8524281835839882  1.0000
  N   N11       1.0  0.7616179911552591  0.1727452034057416  0.37755734120963746  1.0000
  N   N12       1.0  0.23838200887105548  0.8272547968427396  0.6224426585266337  1.0000
  N   N13       1.0  0.7226860924597182  0.33969389363437424  0.11605614179309862  1.0000
  N   N14       1.0  0.2773139075665966  0.6603061066141072  0.8839438579431725  1.0000
  N   N15       1.0  0.9397135028395512  0.6635762988557787  0.3670709341040243  1.0000
  N   N16       1.0  0.06028649718559683  0.3364237013932132  0.6329290662961392  1.0000
  O   O1        1.0  0.35884291976827326  0.0318318679486442  0.22414396266291062  1.0000
  O   O2        1.0  0.6411570802568749  0.9681681323003477  0.775856037737253  1.0000
  O   O3        1.0  0.21975232152444302  0.016644914884577356  0.4209285913163895  1.0000
  O   O4        1.0  0.7802476785007052  0.9833550853644146  0.5790714090837741  1.0000
  O   O5        1.0  0.5786775552259411  0.9023037361371332  0.41679717967708935  1.0000
  O   O6        1.0  0.42132244453114764  0.09769626325100604  0.5832028198377586  1.0000
  O   O7        1.0  0.26551882376618635  0.839445033693713  0.13078622235740986  1.0000
  O   O8        1.0  0.7344811762601283  0.16055496655476834  0.8692137773788613  1.0000
  O   O9        1.0  0.17612015190571015  0.6835033007219613  0.342984825979554  1.0000
  O   O10       1.0  0.823879847850212  0.31649669866668845  0.6570151741991863  1.0000
  O   O11       1.0  0.2795433010601204  0.5019438574740913  0.08837842459879776  1.0000
  O   O12       1.0  0.7204566989661942  0.4980561427743901  0.9116215751374734  1.0000
  O   O13       1.0  0.9074067914293411  0.6179234121690543  0.07579814493867026  1.0000
  O   O14       1.0  0.0925932085958071  0.38207658807993755  0.9242018554614932  1.0000
  O   O15       1.0  0.12050363386624352  0.4823576156611642  0.27193546312170874  1.0000
  O   O16       1.0  0.8794963658908452  0.517642383726975  0.7280645363931392  1.0000
  F   F1        1.0  0.03771853532748213  0.8994767300682847  0.04849457210456763  1.0000
  F   F2        1.0  0.9622814656667809  0.10052327018227915  0.9515054277840953  1.0000
  F   F3        1.0  0.12784146599189541  0.08041998791829548  0.13525737922282452  1.0000
  F   F4        1.0  0.8721585340332527  0.9195800123306964  0.864742621177339  1.0000
  F   F5        1.0  0.22443440316022625  0.9967127547346826  0.032948729247465176  1.0000
  F   F6        1.0  0.7755655968649221  0.00328724551430939  0.9670512711526984  1.0000
  F   F7        1.0  0.4029245800689676  0.6644172149014889  0.46533905113846147  1.0000
  F   F8        1.0  0.597075419957347  0.33558278534699243  0.5346609485978098  1.0000
  F   F9        1.0  0.35016110116798355  0.47752570650587  0.39885442493670437  1.0000
  F   F10       1.0  0.6498388988571646  0.5224742937431218  0.6011455754634591  1.0000
  F   F11       1.0  0.21496679323328352  0.5560258211907776  0.469315037259583  1.0000
  F   F12       1.0  0.7850332067918647  0.44397417905821435  0.5306849631405806  1.0000
