data_image0
_chemical_formula_structural       H60C72O4P4I4
_chemical_formula_sum              "H60 C72 O4 P4 I4"
_cell_length_a       8.330960050498334
_cell_length_b       20.862402244749756
_cell_length_c       9.80353392551025
_cell_angle_alpha    90.0
_cell_angle_beta     110.41821764299658
_cell_angle_gamma    90.0

_space_group_name_H-M_alt    "P 1"
_space_group_IT_number       1

loop_
  _space_group_symop_operation_xyz
  'x, y, z'

loop_
  _atom_site_type_symbol
  _atom_site_label
  _atom_site_symmetry_multiplicity
  _atom_site_fract_x
  _atom_site_fract_y
  _atom_site_fract_z
  _atom_site_occupancy
  H   H1        1.0  0.5160296981622171  0.09424488450244548  0.8949478038683476  1.0000
  H   H2        1.0  0.9839703012452163  0.5942448843886101  0.605052195189698  1.0000
  H   H3        1.0  0.4839703018418427  0.9057551157492151  0.10505219550124517  1.0000
  H   H4        1.0  0.016029697561530953  0.4057551153837192  0.39494780418720776  1.0000
  H   H5        1.0  0.3955094475973626  0.041753612061583976  0.06663490711568999  1.0000
  H   H6        1.0  0.10449055180601105  0.5417536119477486  0.43336509257276296  1.0000
  H   H7        1.0  0.6044905524066971  0.9582463881900766  0.9333650922539026  1.0000
  H   H8        1.0  0.8955094474556289  0.45824638782458066  0.5666349078925432  1.0000
  H   H9        1.0  0.5374726891245789  0.056467088793500084  0.33302116705964535  1.0000
  H   H10       1.0  0.9625273103388234  0.5564670886796648  0.166978832960442  1.0000
  H   H11       1.0  0.46252731013706094  0.9435329114581605  0.6669788334056608  1.0000
  H   H12       1.0  0.03747268966523634  0.4435329115719958  0.8330211664091508  1.0000
  H   H13       1.0  0.8484684259100808  0.1728225080554834  0.7837420025758348  1.0000
  H   H14       1.0  0.6515315739522454  0.6728225079416481  0.7162579975706111  1.0000
  H   H15       1.0  0.1515315740939791  0.827177491716846  0.21625799679375796  1.0000
  H   H16       1.0  0.3484684253093946  0.32717749183068123  0.28374200289469503  1.0000
  H   H17       1.0  0.786721922654865  0.2796880244924062  0.8662956095257951  1.0000
  H   H18       1.0  0.7132780772074611  0.779688024857902  0.6337043906206509  1.0000
  H   H19       1.0  0.21327807615188232  0.7203119752799232  0.1337043898511107  1.0000
  H   H20       1.0  0.2867219232514913  0.2203119753937585  0.3662956098373423  1.0000
  H   H21       1.0  0.5596465961013093  0.11860526994788946  0.6203807830688715  1.0000
  H   H22       1.0  0.9403534037610167  0.6186052698340542  0.8796192170775746  1.0000
  H   H23       1.0  0.4403534039027504  0.8813947298244399  0.3796192163007212  1.0000
  H   H24       1.0  0.05964659669793572  0.3813947299382752  0.12038078338041865  1.0000
  H   H25       1.0  0.37140986276094445  0.027321650369551538  0.49770863605454463  1.0000
  H   H26       1.0  0.1285901366424292  0.5273216502557162  0.0022913636339082738  1.0000
  H   H27       1.0  0.6285901372431153  0.972678349882109  0.5022913633150481  1.0000
  H   H28       1.0  0.8714098626192108  0.47267834999594427  0.997708636831398  1.0000
  H   H29       1.0  0.0633511714202211  0.03207680506536159  0.44675136877841193  1.0000
  H   H30       1.0  0.4366488279831526  0.5320768054308574  0.05324863091004106  1.0000
  H   H31       1.0  0.9366488290387313  0.9679231947069677  0.5532486316795812  1.0000
  H   H32       1.0  0.5633511720209072  0.4679231948208031  0.9467513684595518  1.0000
  H   H33       1.0  0.7202070874024005  0.2458190336777065  0.3475654080566272  1.0000
  H   H34       1.0  0.7797929120610018  0.7458190340432024  0.15243459196346013  1.0000
  H   H35       1.0  0.2797929114043468  0.7541809660946228  0.6524345913202786  1.0000
  H   H36       1.0  0.22020708839795047  0.25418096620845815  0.8475654084945329  1.0000
  H   H37       1.0  0.9271642259248627  0.17230619215505968  0.2577533771636899  1.0000
  H   H38       1.0  0.5728357747358521  0.6723061920412243  0.24224662284908438  1.0000
  H   H39       1.0  0.07283577407919715  0.8276938076172697  0.7422466222059029  1.0000
  H   H40       1.0  0.4271642257231002  0.32769380773110496  0.7577533776089088  1.0000
  H   H41       1.0  0.11553993927483994  0.22281592145841392  0.6290644795221718  1.0000
  H   H42       1.0  0.3844600609823499  0.7228159218239099  0.87093552138104  1.0000
  H   H43       1.0  0.8844600611841125  0.7771840783139154  0.3709355209358212  1.0000
  H   H44       1.0  0.61553993827929  0.2771840784277508  0.1290644790842661  1.0000
  H   H45       1.0  0.43109302307883296  0.21719672868163278  0.6833299987313182  1.0000
  H   H46       1.0  0.06890697717835692  0.7171967285677975  0.8166700021718937  1.0000
  H   H47       1.0  0.5689069773801194  0.7828032715700277  0.3166700017266749  1.0000
  H   H48       1.0  0.9310930232805955  0.28280327168386304  0.1833299982860994  1.0000
  H   H49       1.0  0.7798725730930917  0.16069241646626167  0.991416929604269  1.0000
  H   H50       1.0  0.7201274267692345  0.6606924163524263  0.5085830705421772  1.0000
  H   H51       1.0  0.2201274273658608  0.8393075837853989  0.008583070853724282  1.0000
  H   H52       1.0  0.27987257249240544  0.339307583419903  0.4914169299231289  1.0000
  H   H53       1.0  0.6566292837349684  0.35220476644050713  0.42929487364048596  1.0000
  H   H54       1.0  0.8433707169257464  0.852204766806003  0.07070512637228829  1.0000
  H   H55       1.0  0.3433707167239839  0.6477952333318222  0.5707051268175071  1.0000
  H   H56       1.0  0.15662928353320596  0.14779523344565754  0.9292948740857048  1.0000
  H   H57       1.0  0.6882782326611161  0.36944458023474613  0.6885026350820119  1.0000
  H   H58       1.0  0.8117217672012098  0.869444580600242  0.8114973650644339  1.0000
  H   H59       1.0  0.3117217677978363  0.6305554195375832  0.31149736537598105  1.0000
  H   H60       1.0  0.18827823280284986  0.1305554196514185  0.18850263430515882  1.0000
  C   C1        1.0  0.578330047031674  0.10060349212795917  0.012082131299556053  1.0000
  C   C2        1.0  0.9216699524317282  0.6006034920141239  0.48791786872053133  1.0000
  C   C3        1.0  0.42166995297238563  0.8993965076443703  0.9879178680700366  1.0000
  C   C4        1.0  0.0783300468299116  0.39939650775820557  0.5120821317447749  1.0000
  C   C5        1.0  0.5108125535230424  0.07108001382598149  0.10801621409298327  1.0000
  C   C6        1.0  0.9891874471376723  0.5710800137121462  0.39198378591979105  1.0000
  C   C7        1.0  0.48918744648101725  0.9289199864256791  0.8919837852766096  1.0000
  C   C8        1.0  0.010812553321280076  0.4289199860601832  0.6080162145382021  1.0000
  C   C9        1.0  0.5901847276998213  0.07915317855668197  0.25780859017687013  1.0000
  C   C10       1.0  0.9098152729608935  0.5791531784428466  0.2421914098359041  1.0000
  C   C11       1.0  0.4098152723042384  0.9208468216949787  0.7421914091927226  1.0000
  C   C12       1.0  0.09018472749805889  0.4208468213294827  0.7578085906220889  1.0000
  C   C13       1.0  0.7396197616927647  0.11611039714324402  0.3123445580877822  1.0000
  C   C14       1.0  0.76038023896795  0.6161103970294087  0.18765544192499203  1.0000
  C   C15       1.0  0.26038023831129503  0.8838896026290852  0.6876554412818106  1.0000
  C   C16       1.0  0.23961976149100234  0.38388960274292067  0.812344558533001  1.0000
  C   C17       1.0  0.7887481177715479  0.20265018047305472  0.5601570914552115  1.0000
  C   C18       1.0  0.7112518820907782  0.7026501808385506  0.9398429086912344  1.0000
  C   C19       1.0  0.21125188223251185  0.7973498192992747  0.4398429079143812  1.0000
  C   C20       1.0  0.28874811836817427  0.29734981941311  0.060157091766758625  1.0000
  C   C21       1.0  0.8066017935638123  0.21235386308951595  0.7065087188416699  1.0000
  C   C22       1.0  0.6933982062985137  0.7123538629756807  0.7934912813047761  1.0000
  C   C23       1.0  0.19339820689514003  0.7876461366828134  0.29349128161632315  1.0000
  C   C24       1.0  0.30660179370554613  0.28764613679664874  0.20650871806481672  1.0000
  C   C25       1.0  0.7705356177600191  0.272172054463621  0.7522560832733334  1.0000
  C   C26       1.0  0.7294643821023068  0.7721720543497856  0.7477439168731128  1.0000
  C   C27       1.0  0.22946438104672814  0.7278279457880396  0.24774391610357255  1.0000
  C   C28       1.0  0.2705356183566455  0.22782794590187486  0.25225608358488033  1.0000
  C   C29       1.0  0.42212050823125047  0.12179576254884346  0.5968656115179345  1.0000
  C   C30       1.0  0.07787949157104686  0.6217957624350081  0.9031343882968771  1.0000
  C   C31       1.0  0.5778794917728094  0.8782042377028171  0.4031343878516583  1.0000
  C   C32       1.0  0.9221205088879056  0.3782042378166524  0.096865612161116  1.0000
  C   C33       1.0  0.318131729091551  0.07019340931212907  0.5289550191536985  1.0000
  C   C34       1.0  0.1818682707107463  0.5701934096776249  0.9710449806611131  1.0000
  C   C35       1.0  0.6818682709125087  0.9298065904602003  0.4710449802158942  1.0000
  C   C36       1.0  0.8181317285508937  0.42980659057403564  0.028955019804193127  1.0000
  C   C37       1.0  0.1425990277646607  0.07261669831820328  0.5004172198053022  1.0000
  C   C38       1.0  0.3574009724925292  0.572616698204368  0.9995827810979098  1.0000
  C   C39       1.0  0.8574009714969792  0.9273833014541262  0.4995827806600041  1.0000
  C   C40       1.0  0.6425990279664232  0.42738330156796134  0.00041721936008334664  1.0000
  C   C41       1.0  0.06936688608705326  0.12710049729135622  0.5391782247656385  1.0000
  C   C42       1.0  0.43063311371524404  0.627100497656852  0.9608217750491731  1.0000
  C   C43       1.0  0.9306331139170065  0.872899502480973  0.4608217746039542  1.0000
  C   C44       1.0  0.5693668867437084  0.3728995025948085  0.03917822540882007  1.0000
  C   C45       1.0  0.7344612776588278  0.2532156933811131  0.46099628689601485  1.0000
  C   C46       1.0  0.7655387218045745  0.7532156937466089  0.03900371312407247  1.0000
  C   C47       1.0  0.26553872280012447  0.7467843063912163  0.5390037135619782  1.0000
  C   C48       1.0  0.23446127700217276  0.2467843065050516  0.9609962862528333  1.0000
  C   C49       1.0  0.8081778990335248  0.14515567068802457  0.21567165232137342  1.0000
  C   C50       1.0  0.69182210162719  0.6451556710535205  0.28432834769140086  1.0000
  C   C51       1.0  0.1918221014254276  0.8548443290843049  0.7843283481366197  1.0000
  C   C52       1.0  0.3081778983768697  0.35484432919814013  0.7156716516781919  1.0000
  C   C53       1.0  0.1730535085697919  0.17964380832236965  0.6036010370872177  1.0000
  C   C54       1.0  0.3269464912325054  0.6796438082085343  0.8963989627275939  1.0000
  C   C55       1.0  0.8269464918891605  0.8203561914499596  0.3963989633707754  1.0000
  C   C56       1.0  0.6730535075742419  0.32035619156379497  0.10360103664931192  1.0000
  C   C57       1.0  0.3493857820105689  0.1766523651861553  0.6328330589324538  1.0000
  C   C58       1.0  0.15061421779172837  0.67665236507232  0.8671669408823578  1.0000
  C   C59       1.0  0.6506142172510709  0.8233476350655053  0.36716694153285234  1.0000
  C   C60       1.0  0.8493857822123314  0.32334763517934056  0.13283305848723503  1.0000
  C   C61       1.0  0.7263029811449045  0.13799320597053957  0.06600414875332211  1.0000
  C   C62       1.0  0.7736970183184979  0.6379932058567043  0.4339958512667652  1.0000
  C   C63       1.0  0.2736970193140478  0.862006794281121  0.9339958517046709  1.0000
  C   C64       1.0  0.22630298048824954  0.3620067943949563  0.5660041481101407  1.0000
  C   C65       1.0  0.6981125613199685  0.3129416293199418  0.5069962608727506  1.0000
  C   C66       1.0  0.8018874385423576  0.8129416292061065  0.9930037392736953  1.0000
  C   C67       1.0  0.30188743794167144  0.6870583709317187  0.4930037395925555  1.0000
  C   C68       1.0  0.19811256146170222  0.18705837104555406  0.00699626009589741  1.0000
  C   C69       1.0  0.7159540730699662  0.3225546382940388  0.6524987341593598  1.0000
  C   C70       1.0  0.78404592679236  0.8225546386595346  0.8475012659870862  1.0000
  C   C71       1.0  0.2840459273889862  0.6774453614782906  0.34750126629863326  1.0000
  C   C72       1.0  0.2159540720143874  0.1774453615921259  0.15249873338981965  1.0000
  O   O1        1.0  0.7912908594554  0.07120033985414212  0.5875912352982487  1.0000
  O   O2        1.0  0.708709140406926  0.5712003397403068  0.9124087648481972  1.0000
  O   O3        1.0  0.2087091410035523  0.9287996603975185  0.4124087651597444  1.0000
  O   O4        1.0  0.2912908588547139  0.42879966051135376  0.08759123561710885  1.0000
  P   P1        1.0  0.842352661015556  0.1248025040191737  0.5069338950654605  1.0000
  P   P2        1.0  0.65764733884677  0.6248025039053383  0.9930661050809855  1.0000
  P   P3        1.0  0.15764733824608393  0.8751974957531558  0.4930661053998457  1.0000
  P   P4        1.0  0.34235266115728974  0.37519749586699097  0.0069338942886072435  1.0000
  I   I1        1.0  0.06520836464823278  0.9770243925351222  0.13972666408037643  1.0000
  I   I2        1.0  0.4347916359524533  0.4770243926489575  0.3602733356007634  1.0000
  I   I3        1.0  0.934791635355827  0.02297560723720719  0.8602733352892163  1.0000
  I   I4        1.0  0.565208364506499  0.522975607602703  0.6397266648572296  1.0000
