data_image0
_chemical_formula_structural       H56C64N16O2S4Cl8
_chemical_formula_sum              "H56 C64 N16 O2 S4 Cl8"
_cell_length_a       7.522203081109823
_cell_length_b       10.90789109624275
_cell_length_c       20.94896790761924
_cell_angle_alpha    94.3507808839873
_cell_angle_beta     92.37658988436199
_cell_angle_gamma    101.31816933968727

_space_group_name_H-M_alt    "P 1"
_space_group_IT_number       1

loop_
  _space_group_symop_operation_xyz
  'x, y, z'

loop_
  _atom_site_type_symbol
  _atom_site_label
  _atom_site_symmetry_multiplicity
  _atom_site_fract_x
  _atom_site_fract_y
  _atom_site_fract_z
  _atom_site_occupancy
  H   H1        1.0  0.03787325029912863  0.7796822913074747  0.5161130796077159  1.0000
  H   H2        1.0  0.9621267499600322  0.22031770938760495  0.48388692078545537  1.0000
  H   H3        1.0  0.25251392577460313  0.9667451456113233  0.49372092245017285  1.0000
  H   H4        1.0  0.747486074164671  0.03325485406746141  0.5062790774640592  1.0000
  H   H5        1.0  0.3555714744206124  0.098423596777656  0.3462515193037356  1.0000
  H   H6        1.0  0.64442852559152  0.9015764029826674  0.6537484810900189  1.0000
  H   H7        1.0  0.21178294903021078  0.2889722106336541  0.3333145454293932  1.0000
  H   H8        1.0  0.788217051156092  0.7110277899798871  0.6666854544842556  1.0000
  H   H9        1.0  0.06973866924812452  0.2933242809958607  0.6005939513290924  1.0000
  H   H10       1.0  0.9302613306911497  0.7066757186829239  0.39940604858513973  1.0000
  H   H11       1.0  0.9720708644318525  0.4118198566679388  0.6948183218807227  1.0000
  H   H12       1.0  0.027929135580279804  0.5881801430923844  0.3051816785130319  1.0000
  H   H13       1.0  0.9415083495054568  0.3143200556031154  0.7992152622973618  1.0000
  H   H14       1.0  0.058491650506675506  0.6856799441572079  0.20078473809639275  1.0000
  H   H15       1.0  0.019244014185023788  0.10503083805860226  0.808916139348989  1.0000
  H   H16       1.0  0.9807559860012791  0.8949691625549391  0.1910838605646599  1.0000
  H   H17       1.0  0.19985469198580944  0.9775158510276896  0.6008760847430896  1.0000
  H   H18       1.0  0.8001453079534647  0.022484148651095125  0.39912391517114254  1.0000
  H   H19       1.0  0.4064580704857485  0.9289176666666557  0.29601299332474296  1.0000
  H   H20       1.0  0.5935419294535257  0.07108233301212905  0.703987006589489  1.0000
  H   H21       1.0  0.5483223615223969  0.5356791891419468  0.2297732754233333  1.0000
  H   H22       1.0  0.4516776387367639  0.46432081155313304  0.770226724969838  1.0000
  H   H23       1.0  0.5431063516194022  0.4192452480359814  0.3276009353180084  1.0000
  H   H24       1.0  0.45689364831987184  0.5807547516428032  0.6723990645962237  1.0000
  H   H25       1.0  0.47006716588422187  0.5185361861813738  0.4319832991893914  1.0000
  H   H26       1.0  0.5299328340550523  0.4814638134974108  0.5680167007248407  1.0000
  H   H27       1.0  0.4003042349467645  0.7330161549759964  0.43741106757269976  1.0000
  H   H28       1.0  0.5996957650653677  0.2669838447843268  0.5625889328210547  1.0000
  H   H29       1.0  0.6884929414506084  0.29183096693547594  0.19668707645964345  1.0000
  H   H30       1.0  0.3115070587356945  0.7081690336780654  0.8033129234540053  1.0000
  H   H31       1.0  0.47619279896686195  0.3692542363159402  0.1233152441149348  1.0000
  H   H32       1.0  0.5238072010452703  0.630745763444383  0.8766847562788197  1.0000
  H   H33       1.0  0.5981367893723426  0.5196559818634856  0.044160486998384915  1.0000
  H   H34       1.0  0.4018632105669317  0.48034401781529906  0.9558395129158472  1.0000
  H   H35       1.0  0.933434009258045  0.587309843420258  0.03741646751421116  1.0000
  H   H36       1.0  0.06656599092825778  0.41269015719328317  0.9625835323994376  1.0000
  H   H37       1.0  0.20858004614433395  0.04826777272950633  0.14000829844739093  1.0000
  H   H38       1.0  0.7914199537949402  0.9517322269492784  0.8599917014668411  1.0000
  H   H39       1.0  0.28333347282041726  0.815961640987173  0.9434228444614263  1.0000
  H   H40       1.0  0.7166665271188569  0.18403835869161153  0.05657715545280568  1.0000
  H   H41       1.0  0.3125383382257719  0.9700070134916585  0.8605231839988373  1.0000
  H   H42       1.0  0.6874616617135024  0.02999298618712599  0.1394768159153947  1.0000
  H   H43       1.0  0.28544950880921927  0.19141759637860192  0.8908630891217967  1.0000
  H   H44       1.0  0.714550491130055  0.8085824033001826  0.10913691079243527  1.0000
  H   H45       1.0  0.23670133140231903  0.2568979845573855  0.004372752237270049  1.0000
  H   H46       1.0  0.7632986687839838  0.7431020160561557  0.9956272476763787  1.0000
  H   H47       1.0  0.010527369100584313  0.5717120528875028  0.556989066723283  1.0000
  H   H48       1.0  0.9894726310857185  0.4282879477260385  0.44301093319036583  1.0000
  H   H49       1.0  0.2055745531485288  0.544540127444943  0.5993206318404798  1.0000
  H   H50       1.0  0.794425447037774  0.4554598731685982  0.40067936807316895  1.0000
  H   H51       1.0  0.20263264871266345  0.5483929753631529  0.5146471974283487  1.0000
  H   H52       1.0  0.7973673512994689  0.4516070243971703  0.4853528029654057  1.0000
  H   H53       1.0  0.38328350781383524  0.7498376611905387  0.5663596280623775  1.0000
  H   H54       1.0  0.6167164907920629  0.2501623384745846  0.43364037184979776  1.0000
  H   H55       1.0  0.2002886907196798  0.770890329120787  0.6144175532265976  1.0000
  H   H56       1.0  0.7997113092195943  0.22910967055799755  0.38558244668763436  1.0000
  C   C1        1.0  0.09002965732341998  0.0846836486936625  0.7109477356932341  1.0000
  C   C2        1.0  0.9099703426158543  0.915316350985122  0.28905226422099795  1.0000
  C   C3        1.0  0.10318989118995589  0.13499900871825188  0.6510223288677127  1.0000
  C   C4        1.0  0.8968101089963468  0.8650009918952893  0.348977671045936  1.0000
  C   C5        1.0  0.05842380933450303  0.25393632150626144  0.6467723302551552  1.0000
  C   C6        1.0  0.9415761908517998  0.7460636791072799  0.35322766965849356  1.0000
  C   C7        1.0  0.0037693226423918453  0.31938594260360864  0.6992925781963812  1.0000
  C   C8        1.0  0.9962306772968824  0.680614057075176  0.3007074217178509  1.0000
  C   C9        1.0  0.9879012922148297  0.2654481755546746  0.7578543963596951  1.0000
  C   C10       1.0  0.012098707724444541  0.7345518241241099  0.24214560355453696  1.0000
  C   C11       1.0  0.03009186461433799  0.14781663314920998  0.7636088192268713  1.0000
  C   C12       1.0  0.9699081355719648  0.8521833674643312  0.23639118068677756  1.0000
  C   C13       1.0  0.1649429379777367  0.0692777340924028  0.5958171834585597  1.0000
  C   C14       1.0  0.8350570620343957  0.9307222656679204  0.4041828169351949  1.0000
  C   C15       1.0  0.2738321301004162  0.12081249462622529  0.43856313548743336  1.0000
  C   C16       1.0  0.7261678698388581  0.8791875050525594  0.5614368644267986  1.0000
  C   C17       1.0  0.4025079215565544  0.8825624446310306  0.34076932256882864  1.0000
  C   C18       1.0  0.5974920783827198  0.11743755504775402  0.6592306773454034  1.0000
  C   C19       1.0  0.4389574710133102  0.7568925734182008  0.33775405641654793  1.0000
  C   C20       1.0  0.5610425289259641  0.24310742626058385  0.6622459434976842  1.0000
  C   C21       1.0  0.4797309200124094  0.6981240667008243  0.2793538493191299  1.0000
  C   C22       1.0  0.5202690799268647  0.3018759329779603  0.7206461505951022  1.0000
  C   C23       1.0  0.5160118062498619  0.5775031063451793  0.2755488840821185  1.0000
  C   C24       1.0  0.48398819368941237  0.42249689333360524  0.7244511158321136  1.0000
  C   C25       1.0  0.5132704901297771  0.5133052562312943  0.3306114234457077  1.0000
  C   C26       1.0  0.4867295100565257  0.4866947443822468  0.669388576467941  1.0000
  C   C27       1.0  0.47225258719700025  0.5691746554859014  0.3890869290623975  1.0000
  C   C28       1.0  0.5277474130621606  0.4308253452091783  0.6109130713307739  1.0000
  C   C29       1.0  0.4349172610813982  0.6889528741917181  0.39246755511342574  1.0000
  C   C30       1.0  0.5650827391049046  0.31104712642182314  0.6075324448002232  1.0000
  C   C31       1.0  0.9958119417872542  0.4754864629908176  0.11213532101839385  1.0000
  C   C32       1.0  0.004188058224877973  0.5245135367695056  0.8878646793753608  1.0000
  C   C33       1.0  0.929745271669914  0.392127381165158  0.1576132314791067  1.0000
  C   C34       1.0  0.0702547282693601  0.6078726185136265  0.8423867684351252  1.0000
  C   C35       1.0  0.7415014298527597  0.3564798502853847  0.1615509873669318  1.0000
  C   C36       1.0  0.25849857008651445  0.6435201493933999  0.8384490125473002  1.0000
  C   C37       1.0  0.6221355182171254  0.4008385182939531  0.12069534576891675  1.0000
  C   C38       1.0  0.37786448196917727  0.5991614823195881  0.879304654144732  1.0000
  C   C39       1.0  0.6905086927414782  0.48381883308736423  0.07595680323257475  1.0000
  C   C40       1.0  0.309491307197796  0.5161811665914203  0.9240431966816572  1.0000
  C   C41       1.0  0.8774717441750267  0.5218007599758115  0.07161866396398654  1.0000
  C   C42       1.0  0.12252825576424753  0.47819923970297307  0.9283813359502455  1.0000
  C   C43       1.0  0.04981284747871366  0.3421948984380041  0.20129939230347357  1.0000
  C   C44       1.0  0.9501871525334186  0.6578051013223192  0.798700608090281  1.0000
  C   C45       1.0  0.2512577468390709  0.2305613261321765  0.23651361334644488  1.0000
  C   C46       1.0  0.7487422533472319  0.7694386744813647  0.7634863865672038  1.0000
  C   C47       1.0  0.2044636867686403  0.11478282450769647  0.10373211487486911  1.0000
  C   C48       1.0  0.7955363131706339  0.885217175171088  0.8962678850393628  1.0000
  C   C49       1.0  0.2310746592961241  0.07504969940326688  0.03760712243892126  1.0000
  C   C50       1.0  0.76892534064315  0.9249503002755178  0.9623928774753108  1.0000
  C   C51       1.0  0.24391353872887617  0.9502584411534603  0.019046326759222985  1.0000
  C   C52       1.0  0.7560864612103979  0.04974155852532439  0.9809536731550091  1.0000
  C   C53       1.0  0.27283097561545405  0.9128560807470876  0.955832914448122  1.0000
  C   C54       1.0  0.7271690245708488  0.08714391986645374  0.04416708546552685  1.0000
  C   C55       1.0  0.28799374492606383  0.9994741093714331  0.9097467337046375  1.0000
  C   C56       1.0  0.7120062550132104  0.0005258903073514096  0.09025326620959447  1.0000
  C   C57       1.0  0.2736018838397055  0.12366768821182485  0.9268389154552334  1.0000
  C   C58       1.0  0.7263981160995686  0.8763323114669598  0.07316108445899844  1.0000
  C   C59       1.0  0.24651956042518505  0.16048169153239417  0.9899204629219787  1.0000
  C   C60       1.0  0.7534804398339758  0.8395183091626855  0.01007953747119256  1.0000
  C   C61       1.0  0.1593382359798586  0.59110411428904  0.5589669382471741  1.0000
  C   C62       1.0  0.8406617642064442  0.40889588632450125  0.44103306166647455  1.0000
  C   C63       1.0  0.23475555153098365  0.7311674189237135  0.5675102876447432  1.0000
  C   C64       1.0  0.7652444486553192  0.26883258168982777  0.43248971226890554  1.0000
  N   N1        1.0  0.17991600425619367  0.12208268141233888  0.5425993835045949  1.0000
  N   N2        1.0  0.8200839956830805  0.8779173182664457  0.45740061640963714  1.0000
  N   N3        1.0  0.24175531596121375  0.060314947474664066  0.4924964161724197  1.0000
  N   N4        1.0  0.758244684225089  0.9396850531388772  0.5075035837412291  1.0000
  N   N5        1.0  0.33296007584747694  0.05592939243280143  0.3887915752035383  1.0000
  N   N6        1.0  0.6670399240917972  0.944070607245983  0.6112084247106937  1.0000
  N   N7        1.0  0.3634680477064738  0.9382241518788615  0.393765368872101  1.0000
  N   N8        1.0  0.6365319522328005  0.061775847799922894  0.6062346310421312  1.0000
  N   N9        1.0  0.05927672936129871  0.36114723836420315  0.2641804552963046  1.0000
  N   N10       1.0  0.9407232708250041  0.638852762249338  0.7358195446173442  1.0000
  N   N11       1.0  0.1831969334640809  0.29462584546949155  0.28421778469175046  1.0000
  N   N12       1.0  0.8168030664751933  0.7053741542092931  0.7157822152224816  1.0000
  N   N13       1.0  0.16062905756752202  0.26010319976331014  0.18178871001614902  1.0000
  N   N14       1.0  0.8393709426187806  0.739896800850231  0.8182112898974997  1.0000
  N   N15       1.0  0.17667285297783283  0.22694549157115312  0.11793989852972127  1.0000
  N   N16       1.0  0.8233271469614413  0.7730545081076315  0.8820601013845106  1.0000
  O   O1        1.0  0.1716835717833242  0.7965730264263464  0.5165195246172716  1.0000
  O   O2        1.0  0.8283164281559501  0.2034269732524381  0.4834804752969605  1.0000
  S   S1        1.0  0.2476203779351234  0.2699443643127606  0.43265328664114844  1.0000
  S   S2        1.0  0.7523796206707747  0.7300556353523627  0.5673467132710268  1.0000
  S   S3        1.0  0.4120461832002578  0.14475377426744157  0.24269257302212618  1.0000
  S   S4        1.0  0.5879538167390164  0.855246225411343  0.757307426892106  1.0000
  Cl  Cl1       1.0  0.15611060320561704  0.943129506472446  0.7219335241278516  1.0000
  Cl  Cl2       1.0  0.8438893968065152  0.05687049328787721  0.278066476265903  1.0000
  Cl  Cl3       1.0  0.485320643371101  0.7748821565640327  0.20950069679262914  1.0000
  Cl  Cl4       1.0  0.5146793565681732  0.22511784311475186  0.790499303121603  1.0000
  Cl  Cl5       1.0  0.22670268662975643  0.5280556816629882  0.10784482341655403  1.0000
  Cl  Cl6       1.0  0.7732973133095178  0.4719443180157964  0.8921551764976782  1.0000
  Cl  Cl7       1.0  0.2245621645635632  0.8386059359657589  0.07423384205528437  1.0000
  Cl  Cl8       1.0  0.7754378354485691  0.16139406379456442  0.9257661583384701  1.0000
