data_image0
_chemical_formula_structural       H16C19N2O4
_chemical_formula_sum              "H16 C19 N2 O4"
_cell_length_a       3.7309846175526764
_cell_length_b       10.193226841573713
_cell_length_c       10.760670262352484
_cell_angle_alpha    66.25267073306443
_cell_angle_beta     86.19430536967101
_cell_angle_gamma    90.10765935251672

_space_group_name_H-M_alt    "P 1"
_space_group_IT_number       1

loop_
  _space_group_symop_operation_xyz
  'x, y, z'

loop_
  _atom_site_type_symbol
  _atom_site_label
  _atom_site_symmetry_multiplicity
  _atom_site_fract_x
  _atom_site_fract_y
  _atom_site_fract_z
  _atom_site_occupancy
  H   H1        1.0  0.7942024854328611  0.8221340213200145  0.36060614949077996  1.0000
  H   H2        1.0  0.2609174668046989  0.1821080142352828  0.41393213003513546  1.0000
  H   H3        1.0  0.3518615186800039  0.02285982636009978  0.6567108517436137  1.0000
  H   H4        1.0  0.9336028726140999  0.5983490305864139  0.7062009562860496  1.0000
  H   H5        1.0  0.8660147051200506  0.06541136365820414  0.1834495514590543  1.0000
  H   H6        1.0  0.3644842577693838  0.7301712823909895  0.9616079357688203  1.0000
  H   H7        1.0  0.6769702268605085  0.49284062479426904  0.038706307725738576  1.0000
  H   H8        1.0  0.7842532524910674  0.31645403602151284  0.27309035469538334  1.0000
  H   H9        1.0  0.32035287376972993  0.61901172745519  0.4236833137795086  1.0000
  H   H10       1.0  0.23364303606062878  0.7800475909742485  0.18373981387257365  1.0000
  H   H11       1.0  0.7703325684350196  0.25493100893903675  0.5142314170031398  1.0000
  H   H12       1.0  0.36130267116163883  0.4595446798327486  0.6157697807261131  1.0000
  H   H13       1.0  0.9169792914884806  0.9464168226173099  0.9596119752972797  1.0000
  H   H14       1.0  0.817920201033739  0.09289379123703996  0.7206744029670057  1.0000
  H   H15       1.0  0.35635734796624896  0.4117431950332578  0.8495974216103297  1.0000
  H   H16       1.0  0.4715981956471216  0.2482329274770779  0.0860923200377147  1.0000
  C   C1        1.0  0.12550410914833957  0.8353906734519538  0.6451746961466917  1.0000
  C   C2        1.0  0.9747615165751098  0.7786765496803466  0.5587537020894756  1.0000
  C   C3        1.0  0.923341331583252  0.8671266921299324  0.4232017957380449  1.0000
  C   C4        1.0  0.020830994897187458  0.012758040973665275  0.37303115493986627  1.0000
  C   C5        1.0  0.17740395314995036  0.06954214868463453  0.4573248328376319  1.0000
  C   C6        1.0  0.22768583903222897  0.9815055427002303  0.5906095739181159  1.0000
  C   C7        1.0  0.17462302692179432  0.742135424914405  0.7866427588586097  1.0000
  C   C8        1.0  0.599114796431576  0.5142937999875984  0.12806697048115512  1.0000
  C   C9        1.0  0.6594048815957537  0.41765398473240833  0.25891223791835466  1.0000
  C   C10       1.0  0.5587968434285233  0.4511857789922632  0.3710186273422874  1.0000
  C   C11       1.0  0.40292205742484744  0.585277843028289  0.342482260491481  1.0000
  C   C12       1.0  0.35346290699871735  0.6755880778008406  0.20879613228653726  1.0000
  C   C13       1.0  0.6208556581013571  0.3490943070956483  0.5081973557300458  1.0000
  C   C14       1.0  0.5095014325387883  0.3647596084254755  0.6234729674917346  1.0000
  C   C15       1.0  0.7908309296817224  0.04984537816305678  0.9324002961070272  1.0000
  C   C16       1.0  0.7349436028497237  0.1333510103552351  0.7971356675403882  1.0000
  C   C17       1.0  0.5764086938428836  0.26752957484362466  0.761812552955515  1.0000
  C   C18       1.0  0.4798451070731104  0.30919995054288735  0.8689690004517595  1.0000
  C   C19       1.0  0.5457427482554222  0.21889655871861716  0.0012208379108287768  1.0000
  N   N1        1.0  0.44777295502413955  0.6411721138009842  0.10289684661555966  1.0000
  N   N2        1.0  0.6995247027081704  0.09088990110501505  0.03430519947480742  1.0000
  O   O1        1.0  0.87761282612377  0.6381106990042749  0.6063328546482402  1.0000
  O   O2        1.0  0.9729065916410563  0.10660747092562657  0.2455476733822959  1.0000
  O   O3        1.0  0.31565037337354535  0.8041396263114228  0.8591727986094975  1.0000
  O   O4        1.0  0.08626516051472165  0.610069299944125  0.8354465210883112  1.0000
