data_image0
_chemical_formula_structural       H4C12O2S4I4
_chemical_formula_sum              "H4 C12 O2 S4 I4"
_cell_length_a       6.87411431749094
_cell_length_b       7.467505160813599
_cell_length_c       9.680589066664322
_cell_angle_alpha    111.05673884217629
_cell_angle_beta     108.2127627408152
_cell_angle_gamma    94.43242853128334

_space_group_name_H-M_alt    "P 1"
_space_group_IT_number       1

loop_
  _space_group_symop_operation_xyz
  'x, y, z'

loop_
  _atom_site_type_symbol
  _atom_site_label
  _atom_site_symmetry_multiplicity
  _atom_site_fract_x
  _atom_site_fract_y
  _atom_site_fract_z
  _atom_site_occupancy
  H   H1        1.0  0.8939187830991293  0.8547091468517429  0.9769906526243117  1.0000
  H   H2        1.0  0.10608121688397801  0.14529085342677914  0.023009347068528623  1.0000
  H   H3        1.0  0.09215816398109453  0.8836857771982806  0.790149119021248  1.0000
  H   H4        1.0  0.9078418360020128  0.11631422308024163  0.20985088067159235  1.0000
  C   C1        1.0  0.33905987886580247  0.9447568230644477  0.5563071448692711  1.0000
  C   C2        1.0  0.660940121117305  0.055243177214074464  0.4436928548235692  1.0000
  C   C3        1.0  0.5358232953731373  0.08655044407748493  0.6645731048187499  1.0000
  C   C4        1.0  0.4641767046099702  0.9134495562010372  0.3354268948740905  1.0000
  C   C5        1.0  0.6904286552597273  0.13175633108222903  0.6130838445890356  1.0000
  C   C6        1.0  0.30957134472338027  0.8682436691962934  0.3869161551038047  1.0000
  C   C7        1.0  0.5846537262047181  0.5656093236104696  0.5661367003111824  1.0000
  C   C8        1.0  0.41534627377838923  0.43439067666805253  0.43386329938165796  1.0000
  C   C9        1.0  0.831128668835743  0.7862367624625601  0.8477904530664188  1.0000
  C   C10       1.0  0.16887133171089583  0.2137632384109542  0.15220954781571064  1.0000
  C   C11       1.0  0.9347760451892925  0.8000396160253074  0.7533149562139533  1.0000
  C   C12       1.0  0.06522395321915771  0.19996038290953563  0.2466850434710156  1.0000
  O   O1        1.0  0.207830567612736  0.8880429078796098  0.6053858959982391  1.0000
  O   O2        1.0  0.792169432933903  0.11195709299390462  0.39461410488389037  1.0000
  S   S1        1.0  0.8094330513688444  0.6656305166065924  0.5515856127804898  1.0000
  S   S2        1.0  0.19056694760313717  0.334369482923243  0.4484143880937681  1.0000
  S   S3        1.0  0.5850491923178949  0.6365864034541728  0.7573134786389143  1.0000
  S   S4        1.0  0.4149508081123921  0.36341359607629886  0.24268652224342596  1.0000
  I   I1        1.0  0.5666851612924101  0.20293122548433623  0.9053500400871863  1.0000
  I   I2        1.0  0.43331483869069737  0.797068774794186  0.09464995960565399  1.0000
  I   I3        1.0  0.9853899968574058  0.3085814936141576  0.7675803854422409  1.0000
  I   I4        1.0  0.014610003125701819  0.6914185066643646  0.23241961425059943  1.0000
