data_image0
_chemical_formula_structural       H64C64N16O12S4
_chemical_formula_sum              "H64 C64 N16 O12 S4"
_cell_length_a       18.720322855218075
_cell_length_b       3.7396185546372864
_cell_length_c       21.827631210349274
_cell_angle_alpha    90.0
_cell_angle_beta     94.8381077678725
_cell_angle_gamma    90.0

_space_group_name_H-M_alt    "P 1"
_space_group_IT_number       1

loop_
  _space_group_symop_operation_xyz
  'x, y, z'

loop_
  _atom_site_type_symbol
  _atom_site_label
  _atom_site_symmetry_multiplicity
  _atom_site_fract_x
  _atom_site_fract_y
  _atom_site_fract_z
  _atom_site_occupancy
  H   H1        1.0  0.2269514445034358  0.4084405715941119  0.32753370227518575  1.0000
  H   H2        1.0  0.7730485552407556  0.4084405715941119  0.17246629729008411  1.0000
  H   H3        1.0  0.7730485555164754  0.5915594271658454  0.6724662974743429  1.0000
  H   H4        1.0  0.22695144477915566  0.5915594271658454  0.8275337024594445  1.0000
  H   H5        1.0  0.16800260437468093  0.8870739439150509  0.49201300127122166  1.0000
  H   H6        1.0  0.8319973959061904  0.8870739439150509  0.007986998790497784  1.0000
  H   H7        1.0  0.8319973956458216  0.11292605484490643  0.5079869989364845  1.0000
  H   H8        1.0  0.16800260411431217  0.11292605484490643  0.9920130014172084  1.0000
  H   H9        1.0  0.2967472551922611  0.852071964946451  0.5330970850398155  1.0000
  H   H10       1.0  0.70325274510337  0.852071964946451  0.9669029148939722  1.0000
  H   H11       1.0  0.7032527448276501  0.14792803381350625  0.4669029147097133  1.0000
  H   H12       1.0  0.29674725491713255  0.14792803381350625  0.033097085313733975  1.0000
  H   H13       1.0  0.5369618294053282  0.40552662733996137  0.39414361102540774  1.0000
  H   H14       1.0  0.4630381703394545  0.40552662733996137  0.10585638899803955  1.0000
  H   H15       1.0  0.4630381706151743  0.5944733740940654  0.6058563891822984  1.0000
  H   H16       1.0  0.5369618296804567  0.5944733740940654  0.8941436107514892  1.0000
  H   H17       1.0  0.5447850029129897  0.15676828035656754  0.46584141814730295  1.0000
  H   H18       1.0  0.45521499736788157  0.15676828035656754  0.03415858191441646  1.0000
  H   H19       1.0  0.45521499710751284  0.8432317184033898  0.5341585820604031  1.0000
  H   H20       1.0  0.5447850026520297  0.8432317184033898  0.9658414178351121  1.0000
  H   H21       1.0  0.5690884828461452  0.8910334493522133  0.248458070687547  1.0000
  H   H22       1.0  0.4309115168986375  0.8910334493522133  0.25154192933590025  1.0000
  H   H23       1.0  0.43091151717435733  0.10896655208181348  0.7515419295201592  1.0000
  H   H24       1.0  0.5690884831212736  0.10896655208181348  0.7484580704136286  1.0000
  H   H25       1.0  0.6879204322266113  0.9716659966546872  0.22228496807049594  1.0000
  H   H26       1.0  0.31207956805426  0.9716659966546872  0.2777150319912235  1.0000
  H   H27       1.0  0.3120795677938913  0.0283340021052701  0.7777150321372102  1.0000
  H   H28       1.0  0.6879204319662425  0.0283340021052701  0.7222849682164827  1.0000
  H   H29       1.0  0.8188005311019154  0.9363018256656417  0.24426404155278195  1.0000
  H   H30       1.0  0.1811994686428672  0.9363018256656417  0.2557359584706653  1.0000
  H   H31       1.0  0.18119946891858707  0.06369817309431554  0.7557359586549242  1.0000
  H   H32       1.0  0.818800531377044  0.06369817309431554  0.7442640412788634  1.0000
  H   H33       1.0  0.7870784550237829  0.49005581805327997  0.42343217482475715  1.0000
  H   H34       1.0  0.21292154472099967  0.49005581805327997  0.07656782519869014  1.0000
  H   H35       1.0  0.21292154499671953  0.5099441833807469  0.576567825382949  1.0000
  H   H36       1.0  0.7870784552989115  0.5099441833807469  0.9234321745508386  1.0000
  H   H37       1.0  0.6568513049625414  0.5280545572091195  0.39972147560858146  1.0000
  H   H38       1.0  0.3431486947822413  0.5280545572091195  0.10027852441486583  1.0000
  H   H39       1.0  0.34314869505736983  0.4719454415508378  0.6002785241409473  1.0000
  H   H40       1.0  0.6568513052382612  0.4719454415508378  0.8997214757928405  1.0000
  H   H41       1.0  0.9738389690721679  0.53136623186766  0.4086651325082541  1.0000
  H   H42       1.0  0.02616103120870339  0.53136623186766  0.09133486755346538  1.0000
  H   H43       1.0  0.026161030948334652  0.4686337695663668  0.5913348676994521  1.0000
  H   H44       1.0  0.973838968811799  0.4686337695663668  0.9086651326542408  1.0000
  H   H45       1.0  0.8968571835346822  0.25957270663241494  0.4138304717311769  1.0000
  H   H46       1.0  0.10314281621010053  0.25957270663241494  0.08616952829227041  1.0000
  H   H47       1.0  0.1031428164858204  0.7404272921275423  0.5861695284765293  1.0000
  H   H48       1.0  0.8968571838098106  0.7404272921275423  0.9138304714572583  1.0000
  H   H49       1.0  0.9000918882406034  0.6976433242809825  0.4462780881866807  1.0000
  H   H50       1.0  0.09990811150417912  0.6976433242809825  0.05372191183676654  1.0000
  H   H51       1.0  0.09990811177989894  0.30235667715304426  0.5537219120210255  1.0000
  H   H52       1.0  0.9000918885157321  0.30235667715304426  0.9462780879127621  1.0000
  H   H53       1.0  0.9898580697418095  0.7452725162420529  0.3228049222932246  1.0000
  H   H54       1.0  0.01014193053906174  0.7452725162420529  0.17719507776849483  1.0000
  H   H55       1.0  0.010141930278101705  0.2547274825179043  0.6771950774563041  1.0000
  H   H56       1.0  0.9898580694814407  0.2547274825179043  0.8228049224392112  1.0000
  H   H57       1.0  0.9284106873412792  0.07593373919055822  0.292644921187613  1.0000
  H   H58       1.0  0.07158931240350355  0.07593373919055822  0.20735507883583423  1.0000
  H   H59       1.0  0.0715893126792234  0.9240662622434686  0.7073550790200931  1.0000
  H   H60       1.0  0.9284106876164077  0.9240662622434686  0.7926449209136944  1.0000
  H   H61       1.0  0.9252406867091036  0.6388237877998522  0.2607080828152729  1.0000
  H   H62       1.0  0.07475931357176754  0.6388237877998522  0.23929191724644658  1.0000
  H   H63       1.0  0.07475931331080751  0.3611762109601051  0.7392919169342559  1.0000
  H   H64       1.0  0.9252406864487349  0.3611762109601051  0.7607080829612596  1.0000
  C   C1        1.0  0.44362378623351445  0.24547823436741886  0.4261856878640034  1.0000
  C   C2        1.0  0.5563762140467655  0.24547823436741886  0.0738143117395387  1.0000
  C   C3        1.0  0.5563762137863968  0.754521767066608  0.5738143118855255  1.0000
  C   C4        1.0  0.4436237859731457  0.754521767066608  0.9261856880099901  1.0000
  C   C5        1.0  0.3351318257635837  0.10223008962396171  0.45287984793222796  1.0000
  C   C6        1.0  0.6648681745172875  0.10223008962396171  0.04712015212949152  1.0000
  C   C7        1.0  0.6648681742569188  0.8977699091359956  0.5471201522754782  1.0000
  C   C8        1.0  0.33513182550321496  0.8977699091359956  0.9528798480782147  1.0000
  C   C9        1.0  0.3144443671058148  0.2619923625058139  0.3944244930097503  1.0000
  C   C10       1.0  0.6855556326389679  0.2619923625058139  0.10557550701369692  1.0000
  C   C11       1.0  0.6855556329140964  0.7380076389282129  0.6055755067397784  1.0000
  C   C12       1.0  0.3144443673815347  0.7380076389282129  0.8944244931940092  1.0000
  C   C13       1.0  0.2434476960720292  0.2852732610060206  0.37159421389912445  1.0000
  C   C14       1.0  0.7565523036721622  0.2852732610060206  0.12840578566614538  1.0000
  C   C15       1.0  0.756552303947882  0.7147267404280062  0.6284057858504043  1.0000
  C   C16       1.0  0.24344769634774904  0.7147267404280062  0.8715942140833833  1.0000
  C   C17       1.0  0.1917955323459288  0.14594271368218073  0.4081239234098709  1.0000
  C   C18       1.0  0.8082044679349424  0.14594271368218073  0.09187607665184853  1.0000
  C   C19       1.0  0.8082044676739824  0.8540572877518462  0.5918760763396579  1.0000
  C   C20       1.0  0.19179553208556008  0.8540572877518462  0.9081239235558577  1.0000
  C   C21       1.0  0.2104463353121186  0.9904455376623961  0.4658889851440316  1.0000
  C   C22       1.0  0.7895536644326641  0.9904455376623961  0.034111014879415674  1.0000
  C   C23       1.0  0.7895536647077925  0.009554463771630722  0.5341110146054971  1.0000
  C   C24       1.0  0.21044633558783846  0.009554463771630722  0.9658889853282906  1.0000
  C   C25       1.0  0.28163978428776  0.9687564806596648  0.48826410650566693  1.0000
  C   C26       1.0  0.7183602154570227  0.9687564806596648  0.011735893517780278  1.0000
  C   C27       1.0  0.7183602157321513  0.03124352077436209  0.5117358932438618  1.0000
  C   C28       1.0  0.2816397845634798  0.03124352077436209  0.9882641066899258  1.0000
  C   C29       1.0  0.5865549840359215  0.7666524294155116  0.2934173513566128  1.0000
  C   C30       1.0  0.41344501570826986  0.7666524294155116  0.20658264820865702  1.0000
  C   C31       1.0  0.41344501598398975  0.23334757201851522  0.7065826483929158  1.0000
  C   C32       1.0  0.5865549843116413  0.23334757201851522  0.7934173515408717  1.0000
  C   C33       1.0  0.6629146562939221  0.7465213414716232  0.30874860903885415  1.0000
  C   C34       1.0  0.33708534345086055  0.7465213414716232  0.1912513909845931  1.0000
  C   C35       1.0  0.3370853437265804  0.2534786572883341  0.691251391168852  1.0000
  C   C36       1.0  0.6629146565690507  0.2534786572883341  0.8087486087649357  1.0000
  C   C37       1.0  0.7104576928625667  0.8625352647264456  0.2660315407260512  1.0000
  C   C38       1.0  0.2895423068822159  0.8625352647264456  0.2339684592973961  1.0000
  C   C39       1.0  0.28954230715734447  0.1374647340335117  0.7339684590234776  1.0000
  C   C40       1.0  0.7104576931382867  0.1374647340335117  0.7660315409103101  1.0000
  C   C41       1.0  0.7838876992954249  0.8416717491405444  0.2782177969410538  1.0000
  C   C42       1.0  0.2161123004493578  0.8416717491405444  0.22178220308239346  1.0000
  C   C43       1.0  0.2161123007250777  0.1583282496194128  0.7217822032666523  1.0000
  C   C44       1.0  0.7838876990350562  0.1583282496194128  0.7782177970870405  1.0000
  C   C45       1.0  0.8139224263485362  0.7024844784616812  0.33541893250665716  1.0000
  C   C46       1.0  0.18607757339565517  0.7024844784616812  0.1645810670586127  1.0000
  C   C47       1.0  0.186077573671375  0.2975155202982762  0.6645810672428716  1.0000
  C   C48       1.0  0.8139224266242561  0.2975155202982762  0.8354189326909159  1.0000
  C   C49       1.0  0.7658062692377143  0.5910971901823818  0.3789561027644932  1.0000
  C   C50       1.0  0.23419373104315694  0.5910971901823818  0.12104389729722626  1.0000
  C   C51       1.0  0.23419373078278824  0.4089028085775755  0.621043897443213  1.0000
  C   C52       1.0  0.7658062689773455  0.4089028085775755  0.8789561029104799  1.0000
  C   C53       1.0  0.6927748109806212  0.6120639007851976  0.36564159107802474  1.0000
  C   C54       1.0  0.30722518930025006  0.6120639007851976  0.13435840898369475  1.0000
  C   C55       1.0  0.30722518903929  0.3879360979747598  0.6343584086715041  1.0000
  C   C56       1.0  0.6927748107202524  0.3879360979747598  0.8656415912240114  1.0000
  C   C57       1.0  0.9154520257839561  0.5348049756358054  0.4074477030278437  1.0000
  C   C58       1.0  0.08454797449691513  0.5348049756358054  0.09255229703387569  1.0000
  C   C59       1.0  0.08454797423654639  0.46519502312415184  0.5925522971798624  1.0000
  C   C60       1.0  0.9154520255235874  0.46519502312415184  0.9074477031738304  1.0000
  C   C61       1.0  0.9348206991641919  0.7906956088698719  0.3037128989520138  1.0000
  C   C62       1.0  0.06517930111667938  0.7906956088698719  0.19628710110970563  1.0000
  C   C63       1.0  0.06517930085631064  0.20930439256415484  0.6962871012556923  1.0000
  C   C64       1.0  0.9348206989032318  0.20930439256415484  0.8037128986398232  1.0000
  N   N1        1.0  0.4068805299236588  0.09513045376214983  0.46942296361939506  1.0000
  N   N2        1.0  0.5931194703572125  0.09513045376214983  0.030577036442324377  1.0000
  N   N3        1.0  0.5931194700968437  0.9048695476718769  0.530577036588311  1.0000
  N   N4        1.0  0.4068805296632901  0.9048695476718769  0.9694229637653817  1.0000
  N   N5        1.0  0.514105891609777  0.2779329588872494  0.429677559876922  1.0000
  N   N6        1.0  0.48589410867109434  0.2779329588872494  0.07032244018479744  1.0000
  N   N7        1.0  0.4858941084101343  0.7220670398727078  0.5703224398726067  1.0000
  N   N8        1.0  0.5141058913494083  0.7220670398727078  0.9296775600229087  1.0000
  N   N9        1.0  0.11728043617883652  0.16494852375654367  0.38585437756511953  1.0000
  N   N10       1.0  0.8827195641020348  0.16494852375654367  0.1141456224965999  1.0000
  N   N11       1.0  0.882719563841666  0.8350514750034137  0.6141456226425867  1.0000
  N   N12       1.0  0.11728043591846779  0.8350514750034137  0.8858543777111061  1.0000
  N   N13       1.0  0.8860229978387417  0.6784335682723334  0.3486549212916147  1.0000
  N   N14       1.0  0.11397700190604089  0.6784335682723334  0.15134507873183253  1.0000
  N   N15       1.0  0.11397700218176073  0.32156643316169353  0.6513450789160915  1.0000
  N   N16       1.0  0.8860229981144616  0.32156643316169353  0.8486549214758736  1.0000
  O   O1        1.0  0.07150701949833323  0.04335000953478894  0.418875411771569  1.0000
  O   O2        1.0  0.9284929807819468  0.04335000953478894  0.08112458783197309  1.0000
  O   O3        1.0  0.928492980521578  0.9566499918992379  0.5811245879779597  1.0000
  O   O4        1.0  0.07150701923796449  0.9566499918992379  0.9188754119175556  1.0000
  O   O5        1.0  0.10121986465617828  0.30336152830165675  0.33422083039528294  1.0000
  O   O6        1.0  0.8987801356246932  0.30336152830165675  0.16577916966643652  1.0000
  O   O7        1.0  0.8987801353643242  0.6966384704583005  0.6657791698124231  1.0000
  O   O8        1.0  0.10121986439521827  0.6966384704583005  0.8342208300830922  1.0000
  O   O9        1.0  0.5399333350017227  0.6536401144359719  0.32614500554718884  1.0000
  O   O10       1.0  0.4600666647430599  0.6536401144359719  0.17385499447625843  1.0000
  O   O11       1.0  0.46006666501877974  0.34635988432398535  0.6738549946605172  1.0000
  O   O12       1.0  0.5399333347407627  0.34635988432398535  0.8261450052349981  1.0000
  S   S1        1.0  0.39035664569049466  0.40639224771078397  0.36087900334235107  1.0000
  S   S2        1.0  0.6096433545903767  0.40639224771078397  0.1391209967193684  1.0000
  S   S3        1.0  0.6096433543300079  0.5936077510491733  0.6391209968653551  1.0000
  S   S4        1.0  0.39035664543012594  0.5936077510491733  0.8608790034883378  1.0000
