data_image0
_chemical_formula_structural       H58C40N4O22Cl2
_chemical_formula_sum              "H58 C40 N4 O22 Cl2"
_cell_length_a       6.752397299948807
_cell_length_b       12.599133508306158
_cell_length_c       13.851117336365204
_cell_angle_alpha    83.51434461236703
_cell_angle_beta     79.97555799148822
_cell_angle_gamma    76.17199510445317

_space_group_name_H-M_alt    "P 1"
_space_group_IT_number       1

loop_
  _space_group_symop_operation_xyz
  'x, y, z'

loop_
  _atom_site_type_symbol
  _atom_site_label
  _atom_site_symmetry_multiplicity
  _atom_site_fract_x
  _atom_site_fract_y
  _atom_site_fract_z
  _atom_site_occupancy
  H   H1        1.0  0.13092132679124574  0.027430283605631236  0.46697227355448306  1.0000
  H   H2        1.0  0.8690786739618451  0.9725697159194259  0.533027726524073  1.0000
  H   H3        1.0  0.4043787311712941  0.9975683102619305  0.43446864942077096  1.0000
  H   H4        1.0  0.5956212677593101  0.002431690096826212  0.5655313506571681  1.0000
  H   H5        1.0  0.34809546160500926  0.9323744998387428  0.2726063929312181  1.0000
  H   H6        1.0  0.6519045388121811  0.06762550050323002  0.7273936071510063  1.0000
  H   H7        1.0  0.3038885908785471  0.8480387443030378  0.38333893406383723  1.0000
  H   H8        1.0  0.6961114095386434  0.15196125603893493  0.616661066018387  1.0000
  H   H9        1.0  0.05002068423481055  0.781235330195455  0.2911411451244404  1.0000
  H   H10       1.0  0.9499793165182805  0.21876466932960226  0.7088588549541156  1.0000
  H   H11       1.0  0.14370728467900415  0.8706446594634787  0.19416768011829355  1.0000
  H   H12       1.0  0.8562927160740867  0.12935534006157856  0.8058323199602625  1.0000
  H   H13       1.0  0.7888488955908118  0.8383583969511328  0.18512935689883944  1.0000
  H   H14       1.0  0.21115110333979226  0.16164160340762398  0.8148706431790996  1.0000
  H   H15       1.0  0.6914603027950547  0.9084362952954892  0.29332015021507446  1.0000
  H   H16       1.0  0.30853969613554966  0.09156370506326741  0.7066798498628645  1.0000
  H   H17       1.0  0.41557293590028793  0.11671521775552073  0.17308946086121962  1.0000
  H   H18       1.0  0.5844270645169026  0.8832847825864518  0.8269105392210047  1.0000
  H   H19       1.0  0.6819079623288936  0.9477435283141282  0.06180292117028357  1.0000
  H   H20       1.0  0.3180920380882969  0.052256472027844454  0.9381970789119407  1.0000
  H   H21       1.0  0.892473402097585  0.08207642546010482  0.9934357526183983  1.0000
  H   H22       1.0  0.10752659683301946  0.9179235748986517  0.006564247459540706  1.0000
  H   H23       1.0  0.6371212769276082  0.12206115237917929  0.9627580196598418  1.0000
  H   H24       1.0  0.3628787220029961  0.8779388479795774  0.03724198041809721  1.0000
  H   H25       1.0  0.6342116712467484  0.37567171574559965  0.024919782052550493  1.0000
  H   H26       1.0  0.36578832950634255  0.6243282837794574  0.9750802180260055  1.0000
  H   H27       1.0  0.685187745854151  0.28861611406333565  0.9271000629612127  1.0000
  H   H28       1.0  0.3148122534123539  0.7113838854785055  0.07289993711305806  1.0000
  H   H29       1.0  0.061273920025797804  0.2291973584122469  0.963085046714864  1.0000
  H   H30       1.0  0.9387260807272934  0.7708026411128103  0.036914953363692125  1.0000
  H   H31       1.0  0.9826881108774403  0.36702138142941315  0.9154098892273943  1.0000
  H   H32       1.0  0.017311889539749988  0.6329786189125595  0.08459011085483005  1.0000
  H   H33       1.0  0.22463198452928432  0.4271556196272923  0.0014883717336887285  1.0000
  H   H34       1.0  0.7753680162238066  0.5728443798977648  0.9985116283448673  1.0000
  H   H35       1.0  0.31203507030425115  0.2850578762572588  0.03528592133858786  1.0000
  H   H36       1.0  0.6879649301129394  0.7149421240847138  0.9647140787436365  1.0000
  H   H37       1.0  0.3682692482297647  0.4230669787799696  0.1487488271387573  1.0000
  H   H38       1.0  0.6317307507008396  0.5769330215787871  0.8512511729391816  1.0000
  H   H39       1.0  0.09598444930634457  0.4525379154371142  0.18528311779837417  1.0000
  H   H40       1.0  0.9040155513530809  0.5474620849700027  0.814716881548666  1.0000
  H   H41       1.0  0.23212578684588162  0.4804167043005502  0.3076679491778028  1.0000
  H   H42       1.0  0.7678742139072093  0.5195832952245069  0.6923320509007532  1.0000
  H   H43       1.0  0.20038076269994937  0.49272892976683097  0.4852817516210831  1.0000
  H   H44       1.0  0.7996192362306549  0.5072710705919258  0.5147182484568559  1.0000
  H   H45       1.0  0.1958889958617155  0.32641507698204036  0.6013818641429454  1.0000
  H   H46       1.0  0.8041110034047895  0.6735849225598008  0.3986181359313253  1.0000
  H   H47       1.0  0.21444113409121782  0.1475002485496195  0.5368275744965703  1.0000
  H   H48       1.0  0.7855588666618731  0.8524997509754376  0.46317242558198574  1.0000
  H   H49       1.0  0.7878298280420447  0.07922462041559641  0.3180175072619927  1.0000
  H   H50       1.0  0.2121701723751457  0.9207753799263763  0.6819824928202317  1.0000
  H   H51       1.0  0.6967193540060164  0.31425934970829283  0.5193399524963731  1.0000
  H   H52       1.0  0.3032806467470747  0.6857406498167644  0.4806600475821829  1.0000
  H   H53       1.0  0.698947786024906  0.4625845568599366  0.3785469697932116  1.0000
  H   H54       1.0  0.3010522147281849  0.5374154426651205  0.6214530302853445  1.0000
  H   H55       1.0  0.7451604981066902  0.4025824573527249  0.20595904692121272  1.0000
  H   H56       1.0  0.2548395014020497  0.5974175422542605  0.7940409524178739  1.0000
  H   H57       1.0  0.7729365444269466  0.2161788349549345  0.18684252692656997  1.0000
  H   H58       1.0  0.22706345632614436  0.7838211645701226  0.813157473151986  1.0000
  C   C1        1.0  0.2575187297664425  0.017786771449319946  0.4045851997382889  1.0000
  C   C2        1.0  0.7424812709866483  0.9822132280757372  0.5954148003402672  1.0000
  C   C3        1.0  0.24829858957124643  0.9276252709283602  0.3440390499872987  1.0000
  C   C4        1.0  0.7517014093593578  0.07237472943039655  0.6559609500906404  1.0000
  C   C5        1.0  0.024088652217922186  0.8667958836352604  0.25887641255393473  1.0000
  C   C6        1.0  0.9759113467126821  0.13320411672349622  0.7411235875240043  1.0000
  C   C7        1.0  0.8128678163416833  0.90112057267255  0.22829977522009623  1.0000
  C   C8        1.0  0.18713218407550708  0.09887942766942275  0.7717002248621281  1.0000
  C   C9        1.0  0.6619288845204623  0.023400714952367493  0.09920576332520462  1.0000
  C   C10       1.0  0.33807111623262864  0.9765992845726897  0.9007942367533515  1.0000
  C   C11       1.0  0.7280821889707596  0.11039303329633689  0.023446352920222405  1.0000
  C   C12       1.0  0.27191781053798014  0.8896069663106485  0.9765536464188641  1.0000
  C   C13       1.0  0.733196802679323  0.2998237270209951  0.9962558368522474  1.0000
  C   C14       1.0  0.2668031980737679  0.7001762725040621  0.003744163226308706  1.0000
  C   C15       1.0  0.9552433615996202  0.3089072355263961  0.9795648159986199  1.0000
  C   C16       1.0  0.04475663881757018  0.6910927648155766  0.020435184083604462  1.0000
  C   C17       1.0  0.19965381420109993  0.36039972159787637  0.0579652079397075  1.0000
  C   C18       1.0  0.8003461862160907  0.6396002787440962  0.9420347921425168  1.0000
  C   C19       1.0  0.22981019103590852  0.38955071190798285  0.1558685832817088  1.0000
  C   C20       1.0  0.7701898099594172  0.6104492876822187  0.8441314160616632  1.0000
  C   C21       1.0  0.23701674873463446  0.3070860026601123  0.31991850686572465  1.0000
  C   C22       1.0  0.762983251682556  0.6929139976818602  0.6800814932164996  1.0000
  C   C23       1.0  0.22579942869197214  0.4072256505059284  0.3568500023940912  1.0000
  C   C24       1.0  0.774200572303354  0.5927743490842728  0.6431499969492808  1.0000
  C   C25       1.0  0.2108444384713894  0.4135421957954193  0.45819363737916324  1.0000
  C   C26       1.0  0.7891555619458012  0.5864578045465534  0.541806362703061  1.0000
  C   C27       1.0  0.20721197594981614  0.3209044185765947  0.522647588096074  1.0000
  C   C28       1.0  0.7927880233166886  0.6790955809652466  0.4773524119781967  1.0000
  C   C29       1.0  0.21974578433422276  0.2197513327571447  0.48621385839321685  1.0000
  C   C30       1.0  0.7802542160829676  0.780248667584828  0.5137861416890075  1.0000
  C   C31       1.0  0.23479613255469198  0.2119700801527228  0.3853992426673208  1.0000
  C   C32       1.0  0.7652038663759123  0.788029920206034  0.6146007574106183  1.0000
  C   C33       1.0  0.7629958019752328  0.16389881958274244  0.33499742586461356  1.0000
  C   C34       1.0  0.23700419695537148  0.8361011807760141  0.6650025742133254  1.0000
  C   C35       1.0  0.7179358481427688  0.29492881733220855  0.44278293246450845  1.0000
  C   C36       1.0  0.28206415227442166  0.705071183009764  0.5572170676177158  1.0000
  C   C37       1.0  0.7190471327468787  0.37687991842203705  0.3660470178663775  1.0000
  C   C38       1.0  0.28095286642596057  0.6231200820018639  0.6339529814763775  1.0000
  C   C39       1.0  0.7429362990682812  0.3461619641747563  0.27127589395349955  1.0000
  C   C40       1.0  0.25706370134890927  0.6538380361672164  0.7287241061287246  1.0000
  N   N1        1.0  0.7637710547639307  0.23949528483779323  0.25783470677698456  1.0000
  N   N2        1.0  0.23622894598916033  0.7605047146872638  0.7421652933015715  1.0000
  N   N3        1.0  0.7410320640409688  0.18883036581816914  0.4269951679716661  1.0000
  N   N4        1.0  0.25896793513187055  0.8111696346057319  0.5730048313710887  1.0000
  O   O1        1.0  0.24467578011765967  0.11815309677700697  0.3421230196042236  1.0000
  O   O2        1.0  0.7553242202995307  0.8818469035649656  0.6578769804780007  1.0000
  O   O3        1.0  0.03956421026504957  0.9386568282496661  0.32874006950406987  1.0000
  O   O4        1.0  0.9604357886655548  0.06134317210909054  0.6712599305738691  1.0000
  O   O5        1.0  0.7965128523487853  0.004730066660518167  0.17079383285248909  1.0000
  O   O6        1.0  0.20348714831063996  0.9952699337465987  0.8292061664945511  1.0000
  O   O7        1.0  0.6941111622561049  0.21178244600299295  0.06814509100587525  1.0000
  O   O8        1.0  0.3058888370104  0.7882175535388481  0.9318549090683955  1.0000
  O   O9        1.0  0.9943565131345563  0.3454398260358937  0.06644362528684553  1.0000
  O   O10       1.0  0.0056434876185346835  0.6545601734891633  0.9335563747917105  1.0000
  O   O11       1.0  0.24829647134136137  0.29209032912819105  0.22240654397229492  1.0000
  O   O12       1.0  0.7517035279251435  0.70790967041365  0.7775934561019758  1.0000
  O   O13       1.0  0.2171448664596448  0.38888728336667827  0.7568882527318846  1.0000
  O   O14       1.0  0.7828551328068599  0.6111127161751628  0.24311174734238616  1.0000
  O   O15       1.0  0.4706159461292398  0.4384506825828714  0.8330702329305788  1.0000
  O   O16       1.0  0.5293840531372649  0.5615493169589697  0.16692976714369195  1.0000
  O   O17       1.0  0.5690410266721144  0.3581715062859233  0.6788864991662934  1.0000
  O   O18       1.0  0.43095897408097666  0.6418284932391338  0.32111350091226265  1.0000
  O   O19       1.0  0.4741387226394323  0.2500143478265818  0.8253812317689175  1.0000
  O   O20       1.0  0.5258612777777579  0.749985652515391  0.17461876831330692  1.0000
  O   O21       1.0  0.4504823527616619  0.04915195483574599  0.13879827403040393  1.0000
  O   O22       1.0  0.5495176476555286  0.9508480455062267  0.8612017260518203  1.0000
  Cl  Cl1       1.0  0.43295424002313343  0.3584946131985336  0.7732155773836447  1.0000
  Cl  Cl2       1.0  0.5670457603940571  0.6415053871434391  0.22678442269857965  1.0000
