data_image0
_chemical_formula_structural       H124C120N8O12S4Cl4
_chemical_formula_sum              "H124 C120 N8 O12 S4 Cl4"
_cell_length_a       8.430123643107772
_cell_length_b       27.909069885295153
_cell_length_c       12.01908809980653
_cell_angle_alpha    90.0
_cell_angle_beta     101.44079583575419
_cell_angle_gamma    90.0

_space_group_name_H-M_alt    "P 1"
_space_group_IT_number       1

loop_
  _space_group_symop_operation_xyz
  'x, y, z'

loop_
  _atom_site_type_symbol
  _atom_site_label
  _atom_site_symmetry_multiplicity
  _atom_site_fract_x
  _atom_site_fract_y
  _atom_site_fract_z
  _atom_site_occupancy
  H   H1        1.0  0.42086238117170305  0.5912589093015376  0.22849956959838275  1.0000
  H   H2        1.0  0.5791376189880882  0.09125890903809547  0.2715004308177961  1.0000
  H   H3        1.0  0.5791376199676742  0.40874109086704014  0.7715004310821802  1.0000
  H   H4        1.0  0.42086238073349347  0.9087410907721757  0.7284995690063573  1.0000
  H   H5        1.0  0.4872819437545936  0.5411709971731389  0.40109525174164856  1.0000
  H   H6        1.0  0.512718056175717  0.0411709972680033  0.0989047478256871  1.0000
  H   H7        1.0  0.512718055966988  0.4588290026371323  0.5989047480825048  1.0000
  H   H8        1.0  0.4872819435458647  0.9588290029005744  0.9010952519984662  1.0000
  H   H9        1.0  0.16812384114907147  0.6270653981636594  0.5593395493442039  1.0000
  H   H10       1.0  0.8318761583637814  0.12706539825852373  0.9406604507367672  1.0000
  H   H11       1.0  0.8318761585725103  0.3729346016466119  0.44066045047994945  1.0000
  H   H12       1.0  0.1681238413578004  0.8729346015517475  0.05933954908738623  1.0000
  H   H13       1.0  0.10399754603758735  0.6771120670688072  0.3873185962541348  1.0000
  H   H14       1.0  0.896002454122204  0.17711206680536518  0.11268140416204413  1.0000
  H   H15       1.0  0.8960024536839943  0.32288793309977043  0.6126814035700187  1.0000
  H   H16       1.0  0.10399754701717329  0.822887933004906  0.8873185965185186  1.0000
  H   H17       1.0  0.9641929873494576  0.5828022143643711  0.02566175843755509  1.0000
  H   H18       1.0  0.03580701281033379  0.08280221445923548  0.4743382419786238  1.0000
  H   H19       1.0  0.03580701237212419  0.4171977854459001  0.9743382413865983  1.0000
  H   H20       1.0  0.9641929871407287  0.9171977853510358  0.5256617586943727  1.0000
  H   H21       1.0  0.09203856618416713  0.5055106564992857  0.0998646908850075  1.0000
  H   H22       1.0  0.9079614339756241  0.005510656594150181  0.4001353095311713  1.0000
  H   H23       1.0  0.9079614335374147  0.49448934331098543  0.900135308939146  1.0000
  H   H24       1.0  0.0920385669342724  0.9944893435744275  0.5998646903005482  1.0000
  H   H25       1.0  0.9099216800648631  0.524142793368669  0.40718297673184095  1.0000
  H   H26       1.0  0.09007832009492811  0.024142793105226917  0.09281702368433783  1.0000
  H   H27       1.0  0.09007831965671854  0.47585720679990867  0.5928170230923123  1.0000
  H   H28       1.0  0.9099216798561343  0.9758572067050443  0.9071829769886586  1.0000
  H   H29       1.0  0.7858772767538038  0.6018365498754911  0.3347795855269312  1.0000
  H   H30       1.0  0.2141227231765069  0.10183654997035536  0.1652204140404045  1.0000
  H   H31       1.0  0.21412272296777798  0.3981634502930867  0.6652204142972221  1.0000
  H   H32       1.0  0.7858772765450748  0.8981634501982224  0.8347795857837489  1.0000
  H   H33       1.0  0.19584428697505335  0.47063476618834266  0.3722514799762666  1.0000
  H   H34       1.0  0.804155713184738  0.9706347664517848  0.12774852043991222  1.0000
  H   H35       1.0  0.8041557127465283  0.5293652336219286  0.6277485198478867  1.0000
  H   H36       1.0  0.19584428676632443  0.02936523371679295  0.8722514802330843  1.0000
  H   H37       1.0  0.1314012084147989  0.44260886983225817  0.23857653165016632  1.0000
  H   H38       1.0  0.8685987917449924  0.9426088697373938  0.2614234687660125  1.0000
  H   H39       1.0  0.8685987913067829  0.5573911303363195  0.7614234681739871  1.0000
  H   H40       1.0  0.13140120820606999  0.05739113007287741  0.7385765319069839  1.0000
  H   H41       1.0  0.00632290392525552  0.44103580701861234  0.34178716932286574  1.0000
  H   H42       1.0  0.9936770960050554  0.941035806923748  0.15821283024447003  1.0000
  H   H43       1.0  0.9936770957963262  0.5589641931499653  0.6582128305012878  1.0000
  H   H44       1.0  0.006322903716526596  0.05896419288652323  0.8417871695796834  1.0000
  H   H45       1.0  0.706647446053867  0.7799153662038926  0.8602666548159011  1.0000
  H   H46       1.0  0.2933525534589858  0.27991536629875696  0.6397333452650698  1.0000
  H   H47       1.0  0.29335255366771473  0.22008463360637864  0.13973334500825213  1.0000
  H   H48       1.0  0.7066474462625959  0.7200846335115142  0.3602666545590835  1.0000
  H   H49       1.0  0.5389487860512915  0.840673177444798  0.9341699037485074  1.0000
  H   H50       1.0  0.4610512134615614  0.34067317753966236  0.5658300963324635  1.0000
  H   H51       1.0  0.4610512136702904  0.15932682236547327  0.06583009607564588  1.0000
  H   H52       1.0  0.5389487862600203  0.6593268226289153  0.43416990349168977  1.0000
  H   H53       1.0  0.6329757310129532  0.8759701581055199  0.12591058886976494  1.0000
  H   H54       1.0  0.367024269146838  0.3759701582003843  0.3740894115464139  1.0000
  H   H55       1.0  0.3670242687086284  0.12402984206305777  0.8740894109543883  1.0000
  H   H56       1.0  0.6329757305747438  0.6240298419681933  0.6259105882777395  1.0000
  H   H57       1.0  0.8907993297802086  0.8473136108509162  0.2478251990057292  1.0000
  H   H58       1.0  0.1092006703795827  0.347313610587474  0.2521748014104497  1.0000
  H   H59       1.0  0.10920066994137312  0.15268638931766157  0.7521748008184241  1.0000
  H   H60       1.0  0.8907993295714798  0.6526863892227972  0.7478251992625469  1.0000
  H   H61       1.0  0.05630025874252058  0.786331304131453  0.174041537603158  1.0000
  H   H62       1.0  0.9436997414172708  0.2863313042263174  0.3259584628130209  1.0000
  H   H63       1.0  0.9436997412085418  0.2136686956788182  0.8259584630698386  1.0000
  H   H64       1.0  0.05630025830431102  0.7136686955839538  0.6740415370111326  1.0000
  H   H65       1.0  0.4872253579323813  0.7227996290420505  0.9864059046589118  1.0000
  H   H66       1.0  0.5127746415804716  0.22279962913691487  0.5135940954220592  1.0000
  H   H67       1.0  0.5127746417892004  0.27720037076822074  0.013594095165241621  1.0000
  H   H68       1.0  0.4872253581411103  0.7772003706733563  0.486405904402094  1.0000
  H   H69       1.0  0.3125934547719264  0.7516106644260588  0.9088757737427616  1.0000
  H   H70       1.0  0.6874065447409264  0.25161066452092323  0.5911242263382094  1.0000
  H   H71       1.0  0.6874065449496554  0.24838933538421237  0.0911242260813917  1.0000
  H   H72       1.0  0.3125934549806554  0.7483893356476544  0.408875773485944  1.0000
  H   H73       1.0  0.22154533415678293  0.672574949546782  0.8150108417428669  1.0000
  H   H74       1.0  0.7784546653560699  0.17257494928333988  0.6849891583381043  1.0000
  H   H75       1.0  0.7784546655647989  0.3274250506217957  0.18498915808128652  1.0000
  H   H76       1.0  0.22154533436551188  0.8274250505269313  0.3150108414860492  1.0000
  H   H77       1.0  0.40683059204566796  0.6467636382791302  0.8836347896703429  1.0000
  H   H78       1.0  0.5931694074671849  0.1467636383739946  0.6163652104106281  1.0000
  H   H79       1.0  0.5931694079053945  0.3532363615311411  0.11636521100265362  1.0000
  H   H80       1.0  0.4068305922543969  0.8532363614362766  0.38363478941352525  1.0000
  H   H81       1.0  0.378362904346563  0.7336330875285801  0.722442370881114  1.0000
  H   H82       1.0  0.6216370951662898  0.23363308762344454  0.777557629199857  1.0000
  H   H83       1.0  0.6216370953750188  0.26636691228169107  0.27755762894303937  1.0000
  H   H84       1.0  0.3783629047847726  0.7663669121868266  0.2224423714731395  1.0000
  H   H85       1.0  0.41952389760714537  0.674156701650361  0.6843114959278901  1.0000
  H   H86       1.0  0.5804761019057075  0.17415670138691894  0.815688504153081  1.0000
  H   H87       1.0  0.5804761023439171  0.3258432985182167  0.31568850474510646  1.0000
  H   H88       1.0  0.41952389781587424  0.8258432984233522  0.18431149567107238  1.0000
  H   H89       1.0  0.561697657449557  0.7051054915437532  0.787873653510032  1.0000
  H   H90       1.0  0.43830234206329577  0.20510549128031114  0.7121263465709388  1.0000
  H   H91       1.0  0.4383023422720247  0.2948945086248244  0.2121263463141212  1.0000
  H   H92       1.0  0.5616976576582859  0.79489450852996  0.2878736532532145  1.0000
  H   H93       1.0  0.4496763981045582  0.6667883400086013  0.14399994350947673  1.0000
  H   H94       1.0  0.5503236018257525  0.16678833974515922  0.35600005605785895  1.0000
  H   H95       1.0  0.5503236016170235  0.3332116601599764  0.8560000563146766  1.0000
  H   H96       1.0  0.44967639789582925  0.8332116600651119  0.6439999437662943  1.0000
  H   H97       1.0  0.921671562929249  0.7101756769917662  0.25496682316449826  1.0000
  H   H98       1.0  0.07832843723054238  0.21017567708663057  0.24503317725168058  1.0000
  H   H99       1.0  0.0783284379806477  0.28982432281850506  0.7450331766672216  1.0000
  H   H100      1.0  0.9216715627205201  0.7898243227236406  0.7549668234213159  1.0000
  H   H101      1.0  0.6014666792174934  0.5236894998675958  0.15705146262428363  1.0000
  H   H102      1.0  0.39853332094229793  0.023689499962460246  0.3429485377918952  1.0000
  H   H103      1.0  0.39853332169240324  0.4763104999426753  0.842948537207436  1.0000
  H   H104      1.0  0.6014666790087645  0.9763105002061174  0.6570514628811013  1.0000
  H   H105      1.0  0.4043211171247048  0.5123090528908463  0.1817639001639336  1.0000
  H   H106      1.0  0.5956788828056059  0.012309052985710668  0.31823609940340203  1.0000
  H   H107      1.0  0.595678882596877  0.48769094727773143  0.8182360996602197  1.0000
  H   H108      1.0  0.4043211181042907  0.987690947182867  0.6817639004283176  1.0000
  H   H109      1.0  0.28372897169704775  0.5328489237054604  0.9819578050244157  1.0000
  H   H110      1.0  0.7162710275863244  0.032848923442018334  0.5180421942077122  1.0000
  H   H111      1.0  0.7162710280245341  0.4671510764631173  0.01804219479973773  1.0000
  H   H112      1.0  0.2837289721352573  0.9671510763682528  0.48195780561644114  1.0000
  H   H113      1.0  0.40399333455162695  0.5810786803950307  0.0451438364718477  1.0000
  H   H114      1.0  0.5960066656081644  0.08107868048989512  0.4548561639443312  1.0000
  H   H115      1.0  0.5960066651699547  0.4189213197735469  0.9548561633523057  1.0000
  H   H116      1.0  0.40399333434289814  0.9189213196786825  0.5451438367286654  1.0000
  H   H117      1.0  0.45398795023946664  0.5640981775711191  0.8517009101526175  1.0000
  H   H118      1.0  0.5460120504617011  0.06409817766598355  0.6482990899359198  1.0000
  H   H119      1.0  0.5460120494821151  0.4359018225974585  0.14829908967153582  1.0000
  H   H120      1.0  0.45398795044819557  0.9359018225025941  0.35170090989579983  1.0000
  H   H121      1.0  0.630822745421892  0.5548615240008107  0.955573928075628  1.0000
  H   H122      1.0  0.36917725527927575  0.05486152409567509  0.5444260720129094  1.0000
  H   H123      1.0  0.36917725548800473  0.44513847580946053  0.04442607175609171  1.0000
  H   H124      1.0  0.6308227444423059  0.9451384757145962  0.4555739278112439  1.0000
  C   C1        1.0  0.21899104426775645  0.6677922111556925  0.19345053369357446  1.0000
  C   C2        1.0  0.7810089556625542  0.1677922112505569  0.3065494658737612  1.0000
  C   C3        1.0  0.7810089554538253  0.3322077886545787  0.8065494661305789  1.0000
  C   C4        1.0  0.2189910440590275  0.8322077889180207  0.693450533950392  1.0000
  C   C5        1.0  0.07882121765049623  0.692601619095325  0.14420960526795337  1.0000
  C   C6        1.0  0.9211787822798144  0.1926016191901894  0.3557903942993823  1.0000
  C   C7        1.0  0.9211787820710856  0.3073983810732527  0.8557903945562001  1.0000
  C   C8        1.0  0.07882121863008218  0.8073983809783883  0.6442096055323374  1.0000
  C   C9        1.0  0.10585737329612765  0.7143532028096877  0.04132959575029866  1.0000
  C   C10       1.0  0.8941426268636637  0.21435320290455223  0.45867040466588016  1.0000
  C   C11       1.0  0.8941426264254542  0.2856467970005834  0.9586704040738546  1.0000
  C   C12       1.0  0.10585737308739875  0.7856467972640255  0.5413295960071164  1.0000
  C   C13       1.0  0.2644884875656211  0.7025869873338715  0.03152266292819742  1.0000
  C   C14       1.0  0.7355115125941702  0.20258698742873588  0.4684773374879814  1.0000
  C   C15       1.0  0.7355115121559607  0.2974130128347062  0.968477336895956  1.0000
  C   C16       1.0  0.2644884873568922  0.7974130127398419  0.5315226631850151  1.0000
  C   C17       1.0  0.2564421555503896  0.6379200182296478  0.29452793353080137  1.0000
  C   C18       1.0  0.7435578446094018  0.13792001832451223  0.20547206688537747  1.0000
  C   C19       1.0  0.743557844171192  0.3620799819389298  0.7054720662933519  1.0000
  C   C20       1.0  0.2564421553416607  0.8620799818440654  0.794527933787619  1.0000
  C   C21       1.0  0.36493189114979224  0.5992666770601383  0.3005466557364291  1.0000
  C   C22       1.0  0.6350681090099991  0.09926667679669617  0.1994533446797498  1.0000
  C   C23       1.0  0.6350681085717895  0.40073332310843945  0.6994533440877242  1.0000
  C   C24       1.0  0.3649318909410633  0.900733323013575  0.8005466559932467  1.0000
  C   C25       1.0  0.40264602184890724  0.5708647327009088  0.3974158059985743  1.0000
  C   C26       1.0  0.5973539780814034  0.07086473279577314  0.1025841935687614  1.0000
  C   C27       1.0  0.5973539778726745  0.4291352671093625  0.602584193825579  1.0000
  C   C28       1.0  0.40264602164017843  0.929135267014498  0.8974158062553921  1.0000
  C   C29       1.0  0.33124971665757763  0.5810325867772467  0.49006032903635127  1.0000
  C   C30       1.0  0.6687502835022138  0.08103258687211112  0.009939671379827549  1.0000
  C   C31       1.0  0.668750284252319  0.4189674130330245  0.5099396707953684  1.0000
  C   C32       1.0  0.3312497164488487  0.9189674132964666  0.9900603292931689  1.0000
  C   C33       1.0  0.2228611990066037  0.6190399590888154  0.4866149844321234  1.0000
  C   C34       1.0  0.7771388011531877  0.11903995918367972  0.013385015984055445  1.0000
  C   C35       1.0  0.7771388009444589  0.3809600407214559  0.5133850162408732  1.0000
  C   C36       1.0  0.22286119856839412  0.8809600406265915  0.9866149838400979  1.0000
  C   C37       1.0  0.18625104641843065  0.6470721422900265  0.38927432911615467  1.0000
  C   C38       1.0  0.81374895351188  0.1470721423848909  0.11072567045118097  1.0000
  C   C39       1.0  0.813748953303151  0.35292785787855113  0.6107256707079985  1.0000
  C   C40       1.0  0.18625104739801665  0.8529278577836868  0.8892743293805387  1.0000
  C   C41       1.0  0.868296643688238  0.596340522934055  0.17622490309000607  1.0000
  C   C42       1.0  0.1317033564715533  0.09634052267061298  0.32377509732617277  1.0000
  C   C43       1.0  0.13170335603334374  0.4036594772345226  0.8237750967341473  1.0000
  C   C44       1.0  0.8682966434795091  0.9036594771396582  0.6762249033468237  1.0000
  C   C45       1.0  0.9534592047091963  0.569589187863825  0.1092109417207962  1.0000
  C   C46       1.0  0.046540795450595016  0.06958918795868932  0.39078905869538266  1.0000
  C   C47       1.0  0.04654079501238547  0.43041081230475275  0.8907890581033572  1.0000
  C   C48       1.0  0.9534592045004675  0.9304108122098883  0.6092109419776138  1.0000
  C   C49       1.0  0.024016617031168426  0.5263569990105618  0.1512630924264142  1.0000
  C   C50       1.0  0.9759833831286229  0.02635699910542614  0.34873690798976464  1.0000
  C   C51       1.0  0.9759833826904133  0.4736430007997095  0.8487369073977391  1.0000
  C   C52       1.0  0.024016617781273723  0.9736430010631515  0.6512630918419551  1.0000
  C   C53       1.0  0.010517425280490326  0.5094614846871537  0.2587724590542898  1.0000
  C   C54       1.0  0.9894825746498204  0.00946148442371165  0.24122754051304582  1.0000
  C   C55       1.0  0.9894825744410913  0.4905385154814239  0.7412275407698634  1.0000
  C   C56       1.0  0.010517425071761375  0.9905385153865596  0.7587724593111074  1.0000
  C   C57       1.0  0.9230109812180392  0.5369472491054145  0.3238050710146635  1.0000
  C   C58       1.0  0.07698901871227157  0.036947248841972466  0.17619492855267216  1.0000
  C   C59       1.0  0.07698901850354264  0.4630527510631631  0.6761949288094898  1.0000
  C   C60       1.0  0.9230109810093102  0.9630527509682988  0.8238050712714812  1.0000
  C   C61       1.0  0.8525787685101959  0.5802853175172636  0.2838101499173327  1.0000
  C   C62       1.0  0.14742123164959545  0.0802853172538216  0.21618985049884612  1.0000
  C   C63       1.0  0.14742123239970079  0.419714682651314  0.7161898499143871  1.0000
  C   C64       1.0  0.8525787680719863  0.9197146825564496  0.7838101493253072  1.0000
  C   C65       1.0  0.08961158609328859  0.4634528958922778  0.30465282154023443  1.0000
  C   C66       1.0  0.9103884140665027  0.9634528961557198  0.19534717887594444  1.0000
  C   C67       1.0  0.9103884136282931  0.5365471039179934  0.695347178283919  1.0000
  C   C68       1.0  0.08961158588455968  0.03654710401285783  0.8046528217970521  1.0000
  C   C69       1.0  0.9979590510157411  0.7456164610832902  0.9645988371740442  1.0000
  C   C70       1.0  0.002040948497111792  0.24561646117815458  0.5354011629069269  1.0000
  C   C71       1.0  0.002040948705840703  0.25438353872698105  0.035401162650109126  1.0000
  C   C72       1.0  0.9979590512244699  0.7543835389904231  0.4645988369172265  1.0000
  C   C73       1.0  0.8932461091216554  0.779617078585057  0.011893207663768121  1.0000
  C   C74       1.0  0.10675389103813593  0.2796170786799214  0.48810679275241076  1.0000
  C   C75       1.0  0.10675389059992633  0.22038292122521422  0.9881067921603852  1.0000
  C   C76       1.0  0.8932461086834459  0.7203829214886562  0.5118932070717427  1.0000
  C   C77       1.0  0.7469677384017042  0.7951164016287072  0.9445710127546514  1.0000
  C   C78       1.0  0.2530322611111485  0.2951164017235716  0.5554289873263195  1.0000
  C   C79       1.0  0.25303226131987744  0.20488359818156396  0.05542898706950195  1.0000
  C   C80       1.0  0.7469677386104332  0.704883598445006  0.4445710124978337  1.0000
  C   C81       1.0  0.6534054066729205  0.8292954421313289  0.9861173320016313  1.0000
  C   C82       1.0  0.34659459283993244  0.3292954418678868  0.5138826680793398  1.0000
  C   C83       1.0  0.34659459304866136  0.17070455803724882  0.013882667822522064  1.0000
  C   C84       1.0  0.6534054068816493  0.6707045579423844  0.4861173317448136  1.0000
  C   C85       1.0  0.7060652034744527  0.8488773913774393  0.09428184745121194  1.0000
  C   C86       1.0  0.29393479645585807  0.34887739111399724  0.4057181521161237  1.0000
  C   C87       1.0  0.29393479743544404  0.15112260879113837  0.9057181523805077  1.0000
  C   C88       1.0  0.7060652032657236  0.6511226086962739  0.5942818477080296  1.0000
  C   C89       1.0  0.8509995239526673  0.8333098790316081  0.16214692552481275  1.0000
  C   C90       1.0  0.14900047620712395  0.3333098791264724  0.3378530748913661  1.0000
  C   C91       1.0  0.1490004757689144  0.16669012077866316  0.8378530742993406  1.0000
  C   C92       1.0  0.8509995237439385  0.6666901206837988  0.6621469257816304  1.0000
  C   C93       1.0  0.9438623854663977  0.7987392984294807  0.12114416465265651  1.0000
  C   C94       1.0  0.05613761469339369  0.29873929816603867  0.37885583576352233  1.0000
  C   C95       1.0  0.05613761425518411  0.2012607017390969  0.8788558351714968  1.0000
  C   C96       1.0  0.9438623852576687  0.7012607016442326  0.6211441649094741  1.0000
  C   C97       1.0  0.3597812270518334  0.7171833759514168  0.9455828808929032  1.0000
  C   C98       1.0  0.6402187736493342  0.21718337568797474  0.5544171191956342  1.0000
  C   C99       1.0  0.6402187740875439  0.28281662421716086  0.05441711978765965  1.0000
  C   C100      1.0  0.3597812260722475  0.7828166241222965  0.44558288062851925  1.0000
  C   C101      1.0  0.34991714259377477  0.6805081010602495  0.8489835197678506  1.0000
  C   C102      1.0  0.6500828566895975  0.1805081011551139  0.6510164794642773  1.0000
  C   C103      1.0  0.650082857127807  0.31949189875002176  0.1510164800563028  1.0000
  C   C104      1.0  0.34991714303198435  0.8194918990134638  0.34898352035987606  1.0000
  C   C105      1.0  0.43185444796335637  0.6993161832413245  0.7556581905057531  1.0000
  C   C106      1.0  0.5681455513200158  0.19931618297788253  0.7443418087263746  1.0000
  C   C107      1.0  0.5681455517582253  0.30068381692725304  0.2443418093184002  1.0000
  C   C108      1.0  0.43185444840156595  0.8006838168323888  0.2556581910977787  1.0000
  C   C109      1.0  0.47973165707999377  0.5108376075804586  0.11678512030078483  1.0000
  C   C110      1.0  0.5202683430797975  0.010837607675322972  0.38321488011539406  1.0000
  C   C111      1.0  0.5202683426415879  0.4891623922298126  0.8832148795233684  1.0000
  C   C112      1.0  0.47973165805957974  0.9891623924932547  0.6167851205651689  1.0000
  C   C113      1.0  0.4096963241947836  0.5437150618908746  0.017065025958626145  1.0000
  C   C114      1.0  0.5903036757355271  0.043715061985739025  0.4829349736087096  1.0000
  C   C115      1.0  0.5903036755267981  0.45628493827770306  0.9829349738655272  1.0000
  C   C116      1.0  0.40969632398605466  0.9562849381828386  0.5170650262154438  1.0000
  C   C117      1.0  0.5080191056549694  0.5408415637653691  0.9231304768746414  1.0000
  C   C118      1.0  0.4919808938578834  0.040841563860233444  0.5768695232063296  1.0000
  C   C119      1.0  0.4919808940666124  0.45915843640320864  0.07686952294951191  1.0000
  C   C120      1.0  0.508019106093179  0.9591584363083443  0.42313047746666693  1.0000
  N   N1        1.0  0.32822917017270176  0.6749396897646124  0.12275601164998041  1.0000
  N   N2        1.0  0.6717708297576089  0.17493968985947686  0.37724398791735525  1.0000
  N   N3        1.0  0.67177082954888  0.32506031040396516  0.8772439881741728  1.0000
  N   N4        1.0  0.3282291699639729  0.8250603103091009  0.6227560119067981  1.0000
  N   N5        1.0  0.929977296725753  0.6921342925217916  0.1806269099243096  1.0000
  N   N6        1.0  0.07002270320455763  0.1921342922583495  0.3193730896430261  1.0000
  N   N7        1.0  0.07002270418414358  0.30786570764678606  0.8193730899074101  1.0000
  N   N8        1.0  0.9299772965170242  0.8078657075519217  0.6806269101811273  1.0000
  O   O1        1.0  0.6578360106312574  0.6639614317553252  0.1866642427228711  1.0000
  O   O2        1.0  0.34216398952853394  0.16396143185018958  0.31333575769330774  1.0000
  O   O3        1.0  0.34216398909032447  0.33603856841325247  0.8133357571012824  1.0000
  O   O4        1.0  0.6578360101930478  0.8360385683183881  0.6866642421308455  1.0000
  O   O5        1.0  0.7635472233746927  0.653448040904038  0.0067336364641237415  1.0000
  O   O6        1.0  0.2364527767850986  0.15344804099890227  0.4932663639520551  1.0000
  O   O7        1.0  0.2364527775352039  0.3465519589062333  0.9932663633675959  1.0000
  O   O8        1.0  0.7635472229364831  0.8465519591696754  0.5067336358720982  1.0000
  O   O9        1.0  0.9995848290823203  0.7464246814966794  0.860468189506076  1.0000
  O   O10       1.0  0.0004151702010519648  0.24642468123323727  0.639531809726052  1.0000
  O   O11       1.0  0.0004151706392615334  0.25357531867189836  0.1395318103180774  1.0000
  O   O12       1.0  0.9995848295205298  0.7535753185770339  0.36046819009810144  1.0000
  S   S1        1.0  0.7904134357918461  0.6532606953557452  0.12918432228152088  1.0000
  S   S2        1.0  0.20958656436794526  0.15326069545060958  0.37081567813465793  1.0000
  S   S3        1.0  0.2095865639297357  0.34673930445452605  0.8708156775426326  1.0000
  S   S4        1.0  0.7904134355831172  0.8467393043596616  0.6291843225383386  1.0000
  Cl  Cl1       1.0  0.37993912322645773  0.5467528779251765  0.6129736645135323  1.0000
  Cl  Cl2       1.0  0.6200608762863952  0.046752878020040856  0.8870263355674388  1.0000
  Cl  Cl3       1.0  0.6200608764951241  0.45324712188509475  0.38702633531062114  1.0000
  Cl  Cl4       1.0  0.3799391236646673  0.9532471217902303  0.11297366510555774  1.0000
