data_image0
_chemical_formula_structural       H36C54N16Cl2
_chemical_formula_sum              "H36 C54 N16 Cl2"
_cell_length_a       7.901136337781083
_cell_length_b       12.093280268378834
_cell_length_c       11.85804667441974
_cell_angle_alpha    79.76587715593254
_cell_angle_beta     89.67459425585315
_cell_angle_gamma    78.4118091955508

_space_group_name_H-M_alt    "P 1"
_space_group_IT_number       1

loop_
  _space_group_symop_operation_xyz
  'x, y, z'

loop_
  _atom_site_type_symbol
  _atom_site_label
  _atom_site_symmetry_multiplicity
  _atom_site_fract_x
  _atom_site_fract_y
  _atom_site_fract_z
  _atom_site_occupancy
  H   H1        1.0  0.1388363863230325  0.9743957556720315  0.19415188997099492  1.0000
  H   H2        1.0  0.8611636141416186  0.025604244977168948  0.8058481096315561  1.0000
  H   H3        1.0  0.8639286028227933  0.8483386705912596  0.9433063179381603  1.0000
  H   H4        1.0  0.13607139663345402  0.1516613292154854  0.05669368166190432  1.0000
  H   H5        1.0  0.36608473070977565  0.9525631476515175  0.8390193897355237  1.0000
  H   H6        1.0  0.6339152687845693  0.04743685199973671  0.1609806107218976  1.0000
  H   H7        1.0  0.352038705043017  0.5076667840826642  0.1432677448706181  1.0000
  H   H8        1.0  0.64796129415555  0.49233321656803547  0.8567322547303075  1.0000
  H   H9        1.0  0.4795151067582063  0.6442962311640833  0.23286145667907446  1.0000
  H   H10       1.0  0.5204848926980409  0.3557037686426618  0.76713854292099  1.0000
  H   H11       1.0  0.8380981931821004  0.939560940914662  0.48689590641415975  1.0000
  H   H12       1.0  0.1619018075402311  0.06043905889058372  0.5131040931875301  1.0000
  H   H13       1.0  0.6735807913456253  0.115563361203702  0.4149882619445881  1.0000
  H   H14       1.0  0.3264192093767061  0.8844366386015439  0.5850117376571016  1.0000
  H   H15       1.0  0.47384434794978536  0.13611149160802616  0.7387259767820914  1.0000
  H   H16       1.0  0.5261556525148658  0.8638885090411743  0.2612740228204594  1.0000
  H   H17       1.0  0.3186294292613909  0.5248502846261179  0.3361658363496741  1.0000
  H   H18       1.0  0.6813705702329541  0.4751497150251362  0.6638341641077472  1.0000
  H   H19       1.0  0.18394242087374077  0.5311591381386762  0.5220415922938159  1.0000
  H   H20       1.0  0.8160575785825064  0.46884086166806865  0.47795840730624867  1.0000
  H   H21       1.0  0.2504763007506651  0.36468700949895183  0.6839455763709035  1.0000
  H   H22       1.0  0.7495236997139861  0.6353129911502488  0.3160544232316474  1.0000
  H   H23       1.0  0.9349457462696662  0.5472965299884538  0.8859845624471097  1.0000
  H   H24       1.0  0.06505425292890095  0.452703470662246  0.11401543715381597  1.0000
  H   H25       1.0  0.7053854740836388  0.7165135077872885  0.9058569947632887  1.0000
  H   H26       1.0  0.29461452541070626  0.28348649186396546  0.09414300569413267  1.0000
  H   H27       1.0  0.11114648298238362  0.5452479387190072  0.7155947463747958  1.0000
  H   H28       1.0  0.8888535177780456  0.4547520609307478  0.28440525408425066  1.0000
  H   H29       1.0  0.06399728980056461  0.7131508198596738  0.5509318240221607  1.0000
  H   H30       1.0  0.9360027096937806  0.28684917979158026  0.44906817643526065  1.0000
  H   H31       1.0  0.2366450316820089  0.5574318927725271  0.9445899477723453  1.0000
  H   H32       1.0  0.763354967516558  0.44256810787817247  0.05541005182858029  1.0000
  H   H33       1.0  0.2380468362004001  0.7509568559298371  0.8254219480061067  1.0000
  H   H34       1.0  0.7619531632939449  0.24904314372141695  0.17457805245131452  1.0000
  H   H35       1.0  0.5226411465099913  0.3481970295206155  0.29903968280609633  1.0000
  H   H36       1.0  0.4773588542504381  0.6518029701291395  0.7009603176529502  1.0000
  C   C1        1.0  0.0008771034195134695  0.8976909473393152  0.07942240437460882  1.0000
  C   C2        1.0  0.9991228960748316  0.1023090523119388  0.9205775960828124  1.0000
  C   C3        1.0  0.07904161401950023  0.9863156270620741  0.10945683257538635  1.0000
  C   C4        1.0  0.9209583852171644  0.013684373433134726  0.8905431678828961  1.0000
  C   C5        1.0  0.9219057276577631  0.915463081687303  0.9671643506144019  1.0000
  C   C6        1.0  0.0780942715408039  0.08453691896339662  0.03283564898652387  1.0000
  C   C7        1.0  0.00015042272347668876  0.7964428465572341  0.1575662136234658  1.0000
  C   C8        1.0  0.9998495780369525  0.20355715309252073  0.8424337868355807  1.0000
  C   C9        1.0  0.9212974530483902  0.7086605858315173  0.13075648643016885  1.0000
  C   C10       1.0  0.0787025476739412  0.2913394139737287  0.8692435131715208  1.0000
  C   C11       1.0  0.07930092794094157  0.7738452293108554  0.268450434412122  1.0000
  C   C12       1.0  0.9206990728194877  0.2261547703388997  0.7315495660469244  1.0000
  C   C13       1.0  0.4761954720902222  0.9447802521176867  0.007423215643545199  1.0000
  C   C14       1.0  0.5238045286702071  0.05521974753206843  0.9925767848155014  1.0000
  C   C15       1.0  0.3692062554913752  0.8018074934454151  0.9629324595666412  1.0000
  C   C16       1.0  0.6307937437071917  0.19819250720528453  0.037067540034284405  1.0000
  C   C17       1.0  0.2941894451582339  0.7263018615294792  0.9122161141330366  1.0000
  C   C18       1.0  0.7058105543361111  0.27369813812177507  0.0877838863243847  1.0000
  C   C19       1.0  0.2915394355804386  0.6202240473695256  0.9797524400413781  1.0000
  C   C20       1.0  0.7084605648842125  0.37977595327967495  0.0202475595611729  1.0000
  C   C21       1.0  0.3582471186466082  0.5916511792718935  0.09380436491828925  1.0000
  C   C22       1.0  0.6417528808477367  0.4083488203793607  0.906195635539132  1.0000
  C   C23       1.0  0.4306059413783769  0.6673517162003316  0.14445463024797361  1.0000
  C   C24       1.0  0.5693940578582879  0.3326482842948771  0.8555453702103089  1.0000
  C   C25       1.0  0.4375986246731399  0.7741812759435803  0.07770960376662582  1.0000
  C   C26       1.0  0.5624013747831071  0.22581872386316468  0.9222903958334387  1.0000
  C   C27       1.0  0.6808748286068657  0.9753006435313227  0.6299778279034941  1.0000
  C   C28       1.0  0.3191251708493814  0.02469935627542222  0.3700221716965705  1.0000
  C   C29       1.0  0.5938048286803014  0.09139954581213995  0.587632345093095  1.0000
  C   C30       1.0  0.40619517055636345  0.9086004546830688  0.41236765536518744  1.0000
  C   C31       1.0  0.4994936894334979  0.25901199507375255  0.47263316004044337  1.0000
  C   C32       1.0  0.5005063112888335  0.7409880047314933  0.5273668395612463  1.0000
  C   C33       1.0  0.46477350473055945  0.3523388449157211  0.3821674155487414  1.0000
  C   C34       1.0  0.5352264947256877  0.6476611548910238  0.6178325840513232  1.0000
  C   C35       1.0  0.35082390991919066  0.4495387551092726  0.4035244077618498  1.0000
  C   C36       1.0  0.6491760908412386  0.5504612445404825  0.5964755926971967  1.0000
  C   C37       1.0  0.2739158231300241  0.4534375265919104  0.5105560568156582  1.0000
  C   C38       1.0  0.7260841775923074  0.5465624732133354  0.48944394278603154  1.0000
  C   C39       1.0  0.30931436446023586  0.3609632856732684  0.6012544728966123  1.0000
  C   C40       1.0  0.6906856347764289  0.6390367148219404  0.39874552756167025  1.0000
  C   C41       1.0  0.9100727999373965  0.6221572062934496  0.8175945803778232  1.0000
  C   C42       1.0  0.08992720078493492  0.3778427935117962  0.1824054192238666  1.0000
  C   C43       1.0  0.7595624844886731  0.8120042149708505  0.7406638719286149  1.0000
  C   C44       1.0  0.24043751623365833  0.18799578483439533  0.2593361276730747  1.0000
  C   C45       1.0  0.7830207553851312  0.7163525914397135  0.8297358888458057  1.0000
  C   C46       1.0  0.21697924507951996  0.283647409209487  0.17026411075674522  1.0000
  C   C47       1.0  0.4248017101680627  0.26331661100529274  0.581050943320298  1.0000
  C   C48       1.0  0.5751982905923666  0.7366833886444623  0.41894905713874847  1.0000
  C   C49       1.0  0.011118986640262797  0.6210197658322514  0.7188215685536632  1.0000
  C   C50       1.0  0.9888810128540823  0.3789802338190028  0.2811784319037581  1.0000
  C   C51       1.0  0.9872619953226761  0.7131426152027798  0.6276856267267238  1.0000
  C   C52       1.0  0.012738003913988605  0.2868573852924291  0.3723143737315587  1.0000
  C   C53       1.0  0.8593124701676875  0.8081091171817586  0.6401584983639843  1.0000
  C   C54       1.0  0.14068752906897736  0.19189088331345025  0.35984150209429805  1.0000
  N   N1        1.0  0.8552865094885688  0.6353814017604128  0.11142462981374843  1.0000
  N   N2        1.0  0.14471349123376256  0.36461859804483293  0.8885753697879414  1.0000
  N   N3        1.0  0.14664710363767103  0.7517821245229163  0.35950210335657323  1.0000
  N   N4        1.0  0.8533528971227583  0.24821787512683866  0.6404978971024733  1.0000
  N   N5        1.0  0.3955403937831773  0.9102503995783237  0.9219393982156027  1.0000
  N   N6        1.0  0.6044596057111677  0.0897496000729306  0.07806060224181868  1.0000
  N   N7        1.0  0.5027436175511297  0.8653490627293581  0.10362290946934441  1.0000
  N   N8        1.0  0.49725638320929955  0.13465093692039695  0.8963770909897022  1.0000
  N   N9        1.0  0.8037540582285423  0.9129284011878597  0.5707705327895095  1.0000
  N   N10       1.0  0.19624594122770486  0.08707159861888528  0.42922946681055496  1.0000
  N   N11       1.0  0.6018816562920366  0.15060813397645098  0.4806683360103992  1.0000
  N   N12       1.0  0.39811834294462817  0.8493918665187579  0.5193316644478831  1.0000
  N   N13       1.0  0.4877631828576686  0.1577418934280411  0.6498823081105216  1.0000
  N   N14       1.0  0.5122368176450806  0.8422581070656685  0.35011769234938606  1.0000
  N   N15       1.0  0.650609904039709  0.9177648454250877  0.7323367188095956  1.0000
  N   N16       1.0  0.349390095454636  0.08223515422616634  0.2676632816478257  1.0000
  Cl  Cl1       1.0  0.8176395610783738  0.02153396498707241  0.31600130905936424  1.0000
  Cl  Cl2       1.0  0.18236043837787344  0.9784660348196726  0.6839986905407003  1.0000
