data_image0
_chemical_formula_structural       H64C64N8O16S16
_chemical_formula_sum              "H64 C64 N8 O16 S16"
_cell_length_a       22.026740289923318
_cell_length_b       6.6660688576775975
_cell_length_c       11.92392778725567
_cell_angle_alpha    90.0
_cell_angle_beta     94.56600014402899
_cell_angle_gamma    90.0

_space_group_name_H-M_alt    "P 1"
_space_group_IT_number       1

loop_
  _space_group_symop_operation_xyz
  'x, y, z'

loop_
  _atom_site_type_symbol
  _atom_site_label
  _atom_site_symmetry_multiplicity
  _atom_site_fract_x
  _atom_site_fract_y
  _atom_site_fract_z
  _atom_site_occupancy
  H   H1        1.0  0.26970489488604077  0.7193745792885009  0.8653508985950011  1.0000
  H   H2        1.0  0.7697048947809257  0.21937457911430516  0.8653508983571075  1.0000
  H   H3        1.0  0.26970489447414453  0.2806254195597561  0.36535089889038963  1.0000
  H   H4        1.0  0.769704894824468  0.7806254197339519  0.3653508987180443  1.0000
  H   H5        1.0  0.7302951052728585  0.2806254195597561  0.13464910111164866  1.0000
  H   H6        1.0  0.23029510537797332  0.7806254197339519  0.13464910134954236  1.0000
  H   H7        1.0  0.7302951052300912  0.7193745792885009  0.6346491015894744  1.0000
  H   H8        1.0  0.23029510533520603  0.21937457911430516  0.6346491018273682  1.0000
  H   H9        1.0  0.3238691294356866  0.8462428772398424  0.9598513705129041  1.0000
  H   H10       1.0  0.8238691293305718  0.34624287706564666  0.9598513702750106  1.0000
  H   H11       1.0  0.3238691294784538  0.15375712310854914  0.4598513700350785  1.0000
  H   H12       1.0  0.8238691293741139  0.6537571232827449  0.4598513706359474  1.0000
  H   H13       1.0  0.6761308707239875  0.15375712310854914  0.04014863003250816  1.0000
  H   H14       1.0  0.17613087037288905  0.6537571232827449  0.040148629366091  1.0000
  H   H15       1.0  0.6761308706804453  0.8462428772398424  0.5401486296715714  1.0000
  H   H16       1.0  0.17613087078556017  0.34624287706564666  0.540148629909465  1.0000
  H   H17       1.0  0.31669434735907903  0.5810382059793789  0.9655077640189907  1.0000
  H   H18       1.0  0.8166943472539641  0.08103820580518326  0.9655077637810972  1.0000
  H   H19       1.0  0.3166943474026212  0.418961792868878  0.46550776437992764  1.0000
  H   H20       1.0  0.8166943472975063  0.9189617930430737  0.4655077641420339  1.0000
  H   H21       1.0  0.6833056527998201  0.418961792868878  0.03449223568765908  1.0000
  H   H22       1.0  0.18330565290493503  0.9189617930430737  0.03449223592555279  1.0000
  H   H23       1.0  0.6833056527570529  0.5810382059793789  0.5344922361654849  1.0000
  H   H24       1.0  0.18330565286139286  0.08103820580518326  0.534492235564616  1.0000
  H   H25       1.0  0.2995028698520824  0.8372625949658222  0.5776627180515523  1.0000
  H   H26       1.0  0.7995028697477425  0.337262596291761  0.5776627186524212  1.0000
  H   H27       1.0  0.2995028698956246  0.1627374038824348  0.07766271841248916  1.0000
  H   H28       1.0  0.7995028697905098  0.6627374040566305  0.07766271817459545  1.0000
  H   H29       1.0  0.7004971303068167  0.1627374038824348  0.4223372816550975  1.0000
  H   H30       1.0  0.2004971304119316  0.6627374040566305  0.4223372818929912  1.0000
  H   H31       1.0  0.7004971302640494  0.8372625949658222  0.9223372821329232  1.0000
  H   H32       1.0  0.20049713036838945  0.337262596291761  0.9223372815320543  1.0000
  H   H33       1.0  0.2587722380680342  0.7748933037273805  0.6961975229026756  1.0000
  H   H34       1.0  0.7587722384183577  0.2748933035531848  0.6961975227303303  1.0000
  H   H35       1.0  0.25877223811157635  0.22510669662101096  0.19619752326361242  1.0000
  H   H36       1.0  0.7587722384618999  0.7251066967952068  0.19619752309126698  1.0000
  H   H37       1.0  0.7412277616354265  0.22510669662101096  0.3038024767384259  1.0000
  H   H38       1.0  0.2412277617405415  0.7251066967952068  0.3038024769763197  1.0000
  H   H39       1.0  0.7412277615926592  0.7748933037273805  0.8038024772162516  1.0000
  H   H40       1.0  0.2412277616977742  0.2748933035531848  0.8038024774541455  1.0000
  H   H41       1.0  0.27904898733013045  0.584264096749354  0.6034369718967754  1.0000
  H   H42       1.0  0.7790489876804539  0.08426409657515825  0.6034369717244299  1.0000
  H   H43       1.0  0.27904898737289774  0.4157359035990375  0.10343697141894959  1.0000
  H   H44       1.0  0.7790489872685575  0.9157359037732333  0.10343697201981844  1.0000
  H   H45       1.0  0.7209510123733303  0.4157359035990375  0.39656302774432617  1.0000
  H   H46       1.0  0.2209510124784452  0.9157359037732333  0.3965630279822199  1.0000
  H   H47       1.0  0.720951012330563  0.584264096749354  0.8965630282221521  1.0000
  H   H48       1.0  0.22095101243567788  0.08426409657515825  0.8965630284600458  1.0000
  H   H49       1.0  0.42260403252803797  0.14256957290583763  0.5855419410181038  1.0000
  H   H50       1.0  0.9226040324236979  0.6425695730800334  0.5855419416189726  1.0000
  H   H51       1.0  0.4226040325715802  0.8574304259424194  0.08554194137904053  1.0000
  H   H52       1.0  0.9226040324664652  0.35743042576822365  0.08554194114114683  1.0000
  H   H53       1.0  0.5773959676308612  0.8574304259424194  0.4144580586885461  1.0000
  H   H54       1.0  0.07739596773597603  0.35743042576822365  0.41445805892643983  1.0000
  H   H55       1.0  0.5773959675880939  0.14256957290583763  0.9144580591663719  1.0000
  H   H56       1.0  0.07739596769243386  0.6425695730800334  0.914458058565503  1.0000
  H   H57       1.0  0.4662777550775466  0.1429581272480294  0.9450652612532335  1.0000
  H   H58       1.0  0.9662777549732066  0.6429581274222251  0.9450652618541024  1.0000
  H   H59       1.0  0.46627775512108877  0.8570418716002276  0.4450652616141703  1.0000
  H   H60       1.0  0.9662777550159738  0.35704187292616635  0.44506526137627667  1.0000
  H   H61       1.0  0.5337222446259141  0.8570418716002276  0.054934738387868005  1.0000
  H   H62       1.0  0.033722244731029034  0.35704187292616635  0.05493473862576172  1.0000
  H   H63       1.0  0.5337222445831469  0.1429581272480294  0.5549347388656938  1.0000
  H   H64       1.0  0.03372224468748685  0.6429581274222251  0.5549347382648249  1.0000
  C   C1        1.0  0.4691118416757937  0.6433433109621526  0.7539350067011865  1.0000
  C   C2        1.0  0.9691118415706788  0.14334331078795678  0.7539350064632929  1.0000
  C   C3        1.0  0.4691118417193359  0.35665668938623896  0.2539350070621234  1.0000
  C   C4        1.0  0.969111841614221  0.8566566880603003  0.25393500682422965  1.0000
  C   C5        1.0  0.5308881584831053  0.35665668938623896  0.2460649930054633  1.0000
  C   C6        1.0  0.03088815858822033  0.8566566880603003  0.24606499324335704  1.0000
  C   C7        1.0  0.5308881584403381  0.6433433109621526  0.7460649934832891  1.0000
  C   C8        1.0  0.03088815854467815  0.14334331078795678  0.7460649928824202  1.0000
  C   C9        1.0  0.36264586856220304  0.6886439696332972  0.8260937529435163  1.0000
  C   C10       1.0  0.8626458689125267  0.18864396945910142  0.8260937527711709  1.0000
  C   C11       1.0  0.36264586860574527  0.3113560292149598  0.3260937533044531  1.0000
  C   C12       1.0  0.8626458685006304  0.8113560293891555  0.3260937530665594  1.0000
  C   C13       1.0  0.6373541311412577  0.3113560292149598  0.17390624669758525  1.0000
  C   C14       1.0  0.13735413124637255  0.8113560293891555  0.17390624693547896  1.0000
  C   C15       1.0  0.6373541310984904  0.6886439696332972  0.6739062471754109  1.0000
  C   C16       1.0  0.13735413120283038  0.18864396945910142  0.6739062465745421  1.0000
  C   C17       1.0  0.35359388269215114  0.6951689637383167  0.7119923777833226  1.0000
  C   C18       1.0  0.8535938825878111  0.19516896356412086  0.7119923783841915  1.0000
  C   C19       1.0  0.3535938822802549  0.30483103661007493  0.2119923780787111  1.0000
  C   C20       1.0  0.8535938826305784  0.8048310352841361  0.21199237790636571  1.0000
  C   C21       1.0  0.6464061174667479  0.30483103661007493  0.28800762192332724  1.0000
  C   C22       1.0  0.14640611757186292  0.8048310352841361  0.28800762216122094  1.0000
  C   C23       1.0  0.6464061174239807  0.6951689637383167  0.788007622401153  1.0000
  C   C24       1.0  0.14640611752832072  0.19516896356412086  0.788007621800284  1.0000
  C   C25       1.0  0.3154866188803472  0.7105578701823072  0.9083259997542756  1.0000
  C   C26       1.0  0.8154866187752323  0.21055787000811152  0.908325999516382  1.0000
  C   C27       1.0  0.31548661892388935  0.2894421301660843  0.4083260001152124  1.0000
  C   C28       1.0  0.8154866188187745  0.7894421303402801  0.40832599987731866  1.0000
  C   C29       1.0  0.684513381278552  0.2894421301660843  0.09167399995237423  1.0000
  C   C30       1.0  0.18451338092822847  0.7894421303402801  0.09167400012471962  1.0000
  C   C31       1.0  0.6845133812357848  0.7105578701823072  0.5916740004302  1.0000
  C   C32       1.0  0.18451338134089962  0.21055787000811152  0.5916740006680937  1.0000
  C   C33       1.0  0.2945668595733543  0.7254721565664772  0.6439424016436271  1.0000
  C   C34       1.0  0.7945668594682394  0.2254721563922814  0.6439424014057334  1.0000
  C   C35       1.0  0.2945668596168965  0.27452784378191436  0.14394240200456393  1.0000
  C   C36       1.0  0.7945668595117816  0.7745278439561101  0.14394240176667022  1.0000
  C   C37       1.0  0.7054331405855448  0.27452784378191436  0.3560575980630227  1.0000
  C   C38       1.0  0.20543314069065974  0.7745278439561101  0.3560575983009164  1.0000
  C   C39       1.0  0.7054331405427776  0.7254721565664772  0.8560575985408485  1.0000
  C   C40       1.0  0.20543314064789245  0.2254721563922814  0.8560575987787422  1.0000
  C   C41       1.0  0.43886599888466515  0.14424686581095403  0.7667250770748316  1.0000
  C   C42       1.0  0.9388659992357635  0.6442468659851498  0.7667250777412487  1.0000
  C   C43       1.0  0.4388659989282073  0.8557531345374375  0.2667250774357684  1.0000
  C   C44       1.0  0.9388659988230924  0.35575313436324174  0.2667250771978747  1.0000
  C   C45       1.0  0.5611340008187955  0.8557531345374375  0.23327492256626997  1.0000
  C   C46       1.0  0.06113400092391048  0.35575313436324174  0.23327492280416365  1.0000
  C   C47       1.0  0.5611340007752533  0.14424686581095403  0.7332749222053331  1.0000
  C   C48       1.0  0.06113400088036829  0.6442468659851498  0.7332749224432269  1.0000
  C   C49       1.0  0.45686986132342083  0.13977706349775368  0.6563292266178073  1.0000
  C   C50       1.0  0.9568698616737442  0.6397770636719495  0.656329226445462  1.0000
  C   C51       1.0  0.45686986136696295  0.8602229368506378  0.15632922697874418  1.0000
  C   C52       1.0  0.9568698617172865  0.3602229366764421  0.15632922680639874  1.0000
  C   C53       1.0  0.54313013838004  0.8602229368506378  0.3436707730232942  1.0000
  C   C54       1.0  0.04313013848515481  0.3602229366764421  0.3436707732611879  1.0000
  C   C55       1.0  0.5431301383372726  0.13977706349775368  0.84367077350112  1.0000
  C   C56       1.0  0.04313013844238753  0.6397770636719495  0.8436707737390136  1.0000
  C   C57       1.0  0.48165147561444027  0.13949272200046825  0.8606290621832393  1.0000
  C   C58       1.0  0.9816514755093255  0.639492722174664  0.8606290619453457  1.0000
  C   C59       1.0  0.48165147565798255  0.8605072783479233  0.3606290625441761  1.0000
  C   C60       1.0  0.9816514755528676  0.3605072781737275  0.3606290623062824  1.0000
  C   C61       1.0  0.5183485245444589  0.8605072783479233  0.13937093752341057  1.0000
  C   C62       1.0  0.01834852419413533  0.3605072781737275  0.13937093769575595  1.0000
  C   C63       1.0  0.5183485245016916  0.13949272200046825  0.6393709380012363  1.0000
  C   C64       1.0  0.018348524606031567  0.639492722174664  0.6393709374003674  1.0000
  N   N1        1.0  0.37530118222485626  0.16705146372999824  0.7840302272493237  1.0000
  N   N2        1.0  0.8753011821197414  0.667051463904194  0.7840302270114299  1.0000
  N   N3        1.0  0.3753011822676235  0.8329485366183933  0.2840302267714978  1.0000
  N   N4        1.0  0.8753011821625086  0.33294853644419753  0.2840302265336041  1.0000
  N   N5        1.0  0.6246988179348177  0.8329485366183933  0.21596977329608882  1.0000
  N   N6        1.0  0.12469881758371937  0.33294853644419753  0.21596977262967162  1.0000
  N   N7        1.0  0.6246988178912756  0.16705146372999824  0.7159697729351521  1.0000
  N   N8        1.0  0.12469881754095209  0.667051463904194  0.7159697731074974  1.0000
  O   O1        1.0  0.36021983793704904  0.17442250070082221  0.8833883662049157  1.0000
  O   O2        1.0  0.8602198382873726  0.674422500875018  0.8833883660325702  1.0000
  O   O3        1.0  0.36021983797981627  0.8255774996475693  0.3833883657270899  1.0000
  O   O4        1.0  0.8602198378747015  0.32557749947337356  0.3833883654891962  1.0000
  O   O5        1.0  0.6397801617671866  0.8255774996475693  0.1166116342749485  1.0000
  O   O6        1.0  0.1397801618723015  0.32557749947337356  0.1166116345128422  1.0000
  O   O7        1.0  0.6397801617236443  0.17442250070082221  0.6166116339140117  1.0000
  O   O8        1.0  0.1397801618287593  0.674422500875018  0.6166116341519055  1.0000
  O   O9        1.0  0.33811279677493117  0.1873843050032912  0.6991733667987496  1.0000
  O   O10       1.0  0.8381127966698162  0.6873843051774869  0.6991733665608559  1.0000
  O   O11       1.0  0.33811279681769846  0.8126156953451004  0.19917336632092383  1.0000
  O   O12       1.0  0.8381127967133585  0.31261569517090454  0.19917336692179272  1.0000
  O   O13       1.0  0.6618872033847428  0.8126156953451004  0.3008266337466628  1.0000
  O   O14       1.0  0.16188720303364448  0.31261569517090454  0.30082663308024565  1.0000
  O   O15       1.0  0.6618872033412007  0.1873843050032912  0.8008266333857259  1.0000
  O   O16       1.0  0.1618872029908772  0.6873843051774869  0.8008266335580714  1.0000
  S   S1        1.0  0.43716233688404754  0.6446182902912682  0.8820153376484309  1.0000
  S   S2        1.0  0.937162337234371  0.14461829011707236  0.8820153374760854  1.0000
  S   S3        1.0  0.43716233692758977  0.3553817100571234  0.3820153380093676  1.0000
  S   S4        1.0  0.9371623372779133  0.8553817102313191  0.38201533783702224  1.0000
  S   S5        1.0  0.562837662819413  0.3553817100571234  0.11798466199267077  1.0000
  S   S6        1.0  0.06283766292452805  0.8553817102313191  0.1179846622305645  1.0000
  S   S7        1.0  0.5628376627766458  0.6446182902912682  0.6179846624704965  1.0000
  S   S8        1.0  0.06283766288098587  0.14461829011707236  0.6179846618696277  1.0000
  S   S9        1.0  0.41741670178361073  0.6566999941739458  0.6369300579083201  1.0000
  S   S10       1.0  0.9174167021339341  0.15669999399975001  0.6369300577359748  1.0000
  S   S11       1.0  0.417416701826378  0.3433000061744458  0.13693005743049438  1.0000
  S   S12       1.0  0.9174167017212632  0.8433000063486416  0.13693005719260068  1.0000
  S   S13       1.0  0.5825832979206248  0.3433000061744458  0.36306994257154396  1.0000
  S   S14       1.0  0.08258329802496489  0.8433000063486416  0.3630699419706751  1.0000
  S   S15       1.0  0.5825832978770826  0.6566999941739458  0.8630699422106072  1.0000
  S   S16       1.0  0.0825832979821976  0.15669999399975001  0.8630699424485008  1.0000
