data_image0
_chemical_formula_structural       H56C36N2O22Cl2
_chemical_formula_sum              "H56 C36 N2 O22 Cl2"
_cell_length_a       7.073362429364934
_cell_length_b       12.127171812420602
_cell_length_c       12.836267150909071
_cell_angle_alpha    77.67870195845106
_cell_angle_beta     74.89025764959443
_cell_angle_gamma    86.20191418878048

_space_group_name_H-M_alt    "P 1"
_space_group_IT_number       1

loop_
  _space_group_symop_operation_xyz
  'x, y, z'

loop_
  _atom_site_type_symbol
  _atom_site_label
  _atom_site_symmetry_multiplicity
  _atom_site_fract_x
  _atom_site_fract_y
  _atom_site_fract_z
  _atom_site_occupancy
  H   H1        1.0  0.8198274262822741  0.5214874641563721  0.1545763699549736  1.0000
  H   H2        1.0  0.18017257383572177  0.4785125360746648  0.8454236297653154  1.0000
  H   H3        1.0  0.5486901636736785  0.23265550229195703  0.1807231473349358  1.0000
  H   H4        1.0  0.4513098364443174  0.7673444979390798  0.8192768523853532  1.0000
  H   H5        1.0  0.4184459282461766  0.5318147425785558  0.3173150720886681  1.0000
  H   H6        1.0  0.5815540718718195  0.46818525765248126  0.6826849276316208  1.0000
  H   H7        1.0  0.4496050607662164  0.06526242992373138  0.3006548201176611  1.0000
  H   H8        1.0  0.5503949393517795  0.9347375703073056  0.6993451796026278  1.0000
  H   H9        1.0  0.23768397133127647  0.5035461097594631  0.500763823619402  1.0000
  H   H10       1.0  0.7623160284231391  0.49645389030065334  0.49923617692507977  1.0000
  H   H11       1.0  0.18823525854270803  0.11718832108461852  0.5379801633047313  1.0000
  H   H12       1.0  0.811764741575288  0.8828116791464186  0.46201983641555766  1.0000
  H   H13       1.0  0.5281061562730401  0.494540980391823  0.9113530912184108  1.0000
  H   H14       1.0  0.47189384384495575  0.505459019839214  0.08864690850187817  1.0000
  H   H15       1.0  0.7769985108826003  0.44128099074642557  0.9909668541295235  1.0000
  H   H16       1.0  0.2230014893169476  0.5587190086580308  0.009033145591728126  1.0000
  H   H17       1.0  0.9892031740275561  0.846321561809628  0.8117223256692877  1.0000
  H   H18       1.0  0.010796826090439842  0.15367843842140905  0.18827767405100132  1.0000
  H   H19       1.0  0.06683341245801562  0.545389696363135  0.676394892303944  1.0000
  H   H20       1.0  0.9331665876599804  0.454610303867902  0.32360510741634485  1.0000
  H   H21       1.0  0.3845488984864261  0.6789544354190988  0.4225729177011187  1.0000
  H   H22       1.0  0.6154511012679892  0.32104556464101747  0.577427082843363  1.0000
  H   H23       1.0  0.22793364021743648  0.9952115407673557  0.686059921114325  1.0000
  H   H24       1.0  0.7720663599005595  0.004788459463681155  0.31394007860596396  1.0000
  H   H25       1.0  0.31734296233476594  0.952117385784877  0.4513852895249727  1.0000
  H   H26       1.0  0.6826570377832301  0.047882614446160036  0.5486147101953163  1.0000
  H   H27       1.0  0.7743826267061626  0.6258381248411318  0.013399601832395159  1.0000
  H   H28       1.0  0.2256173734118333  0.37416187538990514  0.9866003978878939  1.0000
  H   H29       1.0  0.32270166457910476  0.33258529664918074  0.6249265150119251  1.0000
  H   H30       1.0  0.6772983351753105  0.6674147034109358  0.3750734855325566  1.0000
  H   H31       1.0  0.392725169236555  0.21278203384030214  0.6794119668894206  1.0000
  H   H32       1.0  0.6072748305178605  0.7872179662198142  0.32058803365506117  1.0000
  H   H33       1.0  0.9203396727834124  0.8317330823303077  0.09654377860114018  1.0000
  H   H34       1.0  0.07966032733458349  0.16826691790072923  0.9034562211191488  1.0000
  H   H35       1.0  0.07190146617538383  0.7109404635069515  0.06894242685297802  1.0000
  H   H36       1.0  0.9280985339426122  0.28905953672408546  0.931057572867311  1.0000
  H   H37       1.0  0.12050859211241739  0.8432679446812089  0.9740194863305278  1.0000
  H   H38       1.0  0.879491407641998  0.15673205537890747  0.025980514213954038  1.0000
  H   H39       1.0  0.15409850521314075  0.6826645272282252  0.2456285883760339  1.0000
  H   H40       1.0  0.8459014949048554  0.31733547300281173  0.754371411344255  1.0000
  H   H41       1.0  0.988131251531708  0.7967816076112592  0.2756902581509725  1.0000
  H   H42       1.0  0.011868748586288159  0.20321839261977778  0.7243097415693164  1.0000
  H   H43       1.0  0.23384818641470637  0.8005895897119119  0.2867541696676974  1.0000
  H   H44       1.0  0.7661518133397092  0.19941041034820464  0.7132458308767842  1.0000
  H   H45       1.0  0.4536810614318143  0.846358436312562  0.988299335855328  1.0000
  H   H46       1.0  0.5463189386861816  0.15364156391847486  0.011700663864960973  1.0000
  H   H47       1.0  0.4123742156842656  0.7085106997682001  0.07390152388787069  1.0000
  H   H48       1.0  0.5876257844337304  0.291489300462837  0.9260984758324182  1.0000
  H   H49       1.0  0.5028476443322009  0.8183337472003173  0.12252758769672281  1.0000
  H   H50       1.0  0.4971523555037664  0.1816662520332185  0.8774724128487216  1.0000
  H   H51       1.0  0.039526622999394544  0.9811015613492294  0.1481643517498896  1.0000
  H   H52       1.0  0.9604733767550208  0.018898438710886995  0.8518356487945922  1.0000
  H   H53       1.0  0.244354674480823  0.9991437369148347  0.028418353698060634  1.0000
  H   H54       1.0  0.7556453256371731  0.0008562633162020819  0.9715816460222283  1.0000
  H   H55       1.0  0.28667774409260904  0.9797545479157315  0.16375274288467268  1.0000
  H   H56       1.0  0.7133222560253871  0.02024545231530541  0.8362472568356163  1.0000
  C   C1        1.0  0.49078783507099677  0.389587198799915  0.23756879785105636  1.0000
  C   C2        1.0  0.5092121650469992  0.610412801431122  0.7624312018692327  1.0000
  C   C3        1.0  0.5861467123872012  0.4602903222781046  0.12658737294687997  1.0000
  C   C4        1.0  0.41385328773079494  0.5397096779529325  0.8734126267734089  1.0000
  C   C5        1.0  0.28650754363965464  0.2584563190819339  0.43821198269000566  1.0000
  C   C6        1.0  0.7134924564783415  0.7415436811491032  0.5617880170302832  1.0000
  C   C7        1.0  0.37728202420176393  0.20813716415632205  0.34891525524379086  1.0000
  C   C8        1.0  0.6227179759162321  0.791862836074715  0.6510847444764981  1.0000
  C   C9        1.0  0.4788887327692741  0.27311098050525134  0.2491711015348778  1.0000
  C   C10       1.0  0.5211112669851412  0.7268890195548651  0.7508288990096039  1.0000
  C   C11       1.0  0.40356505699263706  0.44128227174633655  0.32616951900614377  1.0000
  C   C12       1.0  0.5964349427617784  0.5587177283137797  0.673830481538338  1.0000
  C   C13       1.0  0.3033412301558645  0.37578548530328754  0.42635457596862425  1.0000
  C   C14       1.0  0.6966587695985509  0.624214514756829  0.5736454245758575  1.0000
  C   C15       1.0  0.01503950451066588  0.6893519204577017  0.7548865779695944  1.0000
  C   C16       1.0  0.9849604952437494  0.31064807960241486  0.24511342257488747  1.0000
  C   C17       1.0  0.21667391883555548  0.8128659141110122  0.5508174271242746  1.0000
  C   C18       1.0  0.78332608091886  0.1871340859491044  0.44918257342020707  1.0000
  C   C19       1.0  0.1445846211110274  0.8658458407396404  0.6410499801116674  1.0000
  C   C20       1.0  0.8554153790069686  0.1341541594913964  0.3589500196086216  1.0000
  C   C21       1.0  0.19160539484943132  0.695918975693993  0.5646856405285303  1.0000
  C   C22       1.0  0.808394604904984  0.30408102436612355  0.43531436001595136  1.0000
  C   C23       1.0  0.04307120242270649  0.805208644445556  0.7421484431710056  1.0000
  C   C24       1.0  0.9569287976952896  0.19479135578548104  0.2578515565492834  1.0000
  C   C25       1.0  0.09033620949947653  0.6352279090602599  0.6661844466333896  1.0000
  C   C26       1.0  0.9096637906185195  0.36477209117077686  0.3338155530868993  1.0000
  C   C27       1.0  0.9138945845683187  0.6222062430845391  0.8607082547373694  1.0000
  C   C28       1.0  0.08610541518609673  0.37779375697557743  0.13929174580711232  1.0000
  C   C29       1.0  0.06813272191001478  0.8023869253781764  0.060825753192291436  1.0000
  C   C30       1.0  0.9318672782895333  0.1976130740262799  0.9391742465289601  1.0000
  C   C31       1.0  0.14018658814240428  0.7738892923936658  0.24130346498862582  1.0000
  C   C32       1.0  0.859813411693563  0.22611070683987  0.7586965355568186  1.0000
  C   C33       1.0  0.4089785160925066  0.7988472987768193  0.07333529259335517  1.0000
  C   C34       1.0  0.591021484107041  0.20115270062763707  0.9266647071278966  1.0000
  C   C35       1.0  0.19277005177351425  0.9582954232604102  0.11547733655348079  1.0000
  C   C36       1.0  0.807229947980901  0.04170457679970628  0.884522663991001  1.0000
  N   N1        1.0  0.2029351806482775  0.8330471738448161  0.12275059967020502  1.0000
  N   N2        1.0  0.7970648191061378  0.16695282621530042  0.8772494008742767  1.0000
  O   O1        1.0  0.3602700039297802  0.09306016750963983  0.36395259946213987  1.0000
  O   O2        1.0  0.6397299961882157  0.9069398327213971  0.6360474002581492  1.0000
  O   O3        1.0  0.7016508766225527  0.39100550279531054  0.059764883239236205  1.0000
  O   O4        1.0  0.29834912357699533  0.6089944966091457  0.9402351164820154  1.0000
  O   O5        1.0  0.18166942657174276  0.19901154098425014  0.536623737709758  1.0000
  O   O6        1.0  0.8183305731826728  0.8009884590758662  0.4633762628347236  1.0000
  O   O7        1.0  0.21951948308620822  0.4196262511179678  0.5181828200285313  1.0000
  O   O8        1.0  0.7804805171133398  0.5803737482864885  0.4818171796927202  1.0000
  O   O9        1.0  0.6993815740198244  0.5529126651294278  0.13295702067463938  1.0000
  O   O10       1.0  0.30061842573459097  0.4470873349306887  0.8670429798698424  1.0000
  O   O11       1.0  0.8231902019903815  0.678981886542129  0.9378734842106636  1.0000
  O   O12       1.0  0.17680979776403383  0.3210181135179875  0.062126516333818035  1.0000
  O   O13       1.0  0.2622115288916894  0.6422807298103617  0.4788240669005804  1.0000
  O   O14       1.0  0.737788470862726  0.3577192702497547  0.5211759336439014  1.0000
  O   O15       1.0  0.313444347555129  0.8707170812845135  0.45097325504999963  1.0000
  O   O16       1.0  0.6865556525628669  0.12928291894652336  0.5490267446702893  1.0000
  O   O17       1.0  0.18271785733725376  0.9791734835678237  0.6227999987965387  1.0000
  O   O18       1.0  0.8172821413644651  0.02082651666931841  0.37720000092775774  1.0000
  O   O19       1.0  0.9155528616112185  0.5158498618364458  0.8783118588897357  1.0000
  O   O20       1.0  0.08444713850677765  0.48415013839459115  0.12168814083055322  1.0000
  O   O21       1.0  0.4170966930970506  0.29387089250388204  0.6661947340434488  1.0000
  O   O22       1.0  0.5829033066573649  0.7061291075562343  0.333805266501033  1.0000
  Cl  Cl1       1.0  0.3464226711686069  0.0219498517635808  0.8038882889648223  1.0000
  Cl  Cl2       1.0  0.6535773286673605  0.9780501474699549  0.19611171158062204  1.0000
