data_image0
_chemical_formula_structural       H96C108N4O24Cl4
_chemical_formula_sum              "H96 C108 N4 O24 Cl4"
_cell_length_a       23.176778954639445
_cell_length_b       11.75709523207278
_cell_length_c       8.610322999005028
_cell_angle_alpha    90.0
_cell_angle_beta     108.59511340568001
_cell_angle_gamma    90.0

_space_group_name_H-M_alt    "P 1"
_space_group_IT_number       1

loop_
  _space_group_symop_operation_xyz
  'x, y, z'

loop_
  _atom_site_type_symbol
  _atom_site_label
  _atom_site_symmetry_multiplicity
  _atom_site_fract_x
  _atom_site_fract_y
  _atom_site_fract_z
  _atom_site_occupancy
  H   H1        1.0  0.2956690044020787  0.39664797876931346  0.9440292656179666  1.0000
  H   H2        1.0  0.7043309957918767  0.39664797876931346  0.5559707338273644  1.0000
  H   H3        1.0  0.7956690044342827  0.8966479782558882  0.9440292660310114  1.0000
  H   H4        1.0  0.20433099589122636  0.8966479782558882  0.5559707346390824  1.0000
  H   H5        1.0  0.7043309955595736  0.6033520219049364  0.05597073386654656  1.0000
  H   H6        1.0  0.2956690041697755  0.6033520219049364  0.4440292656571489  1.0000
  H   H7        1.0  0.20433099565892307  0.10335202156781152  0.055970734678264564  1.0000
  H   H8        1.0  0.7956690042019795  0.10335202156781152  0.4440292660701936  1.0000
  H   H9        1.0  0.281531490439245  0.15049691569845802  0.5245274681627464  1.0000
  H   H10       1.0  0.7184685098862641  0.15049691569845802  0.9754725325073474  1.0000
  H   H11       1.0  0.7815314903398954  0.650496916035583  0.5245274673510284  1.0000
  H   H12       1.0  0.21846850985406005  0.650496916035583  0.9754725320943028  1.0000
  H   H13       1.0  0.7184685096539608  0.8495030841252417  0.4754725325465296  1.0000
  H   H14       1.0  0.2815314902069418  0.8495030841252417  0.02452746820192852  1.0000
  H   H15       1.0  0.21846850962175673  0.3495030837881167  0.4754725321334849  1.0000
  H   H16       1.0  0.7815314901075923  0.3495030837881167  0.02452746739021051  1.0000
  H   H17       1.0  0.31983743244603874  0.4839445949607138  0.2270083634780283  1.0000
  H   H18       1.0  0.6801625672833101  0.4839445949607138  0.2729916360456671  1.0000
  H   H19       1.0  0.8198374324782428  0.9839445944472884  0.227008363891073  1.0000
  H   H20       1.0  0.18016256738265976  0.9839445944472884  0.27299163685738514  1.0000
  H   H21       1.0  0.6801625675156134  0.5160554057135361  0.7729916360064849  1.0000
  H   H22       1.0  0.319837432678342  0.5160554057135361  0.7270083634388461  1.0000
  H   H23       1.0  0.18016256761496305  0.016055405376411216  0.772991636818203  1.0000
  H   H24       1.0  0.819837432710546  0.016055405376411216  0.7270083638518908  1.0000
  H   H25       1.0  0.40886431158432285  0.11483961074983678  0.47466418976897967  1.0000
  H   H26       1.0  0.591135688580835  0.11483961074983678  0.02533580979316493  1.0000
  H   H27       1.0  0.9088643116165269  0.6148396102364115  0.4746641901820244  1.0000
  H   H28       1.0  0.09113568854863087  0.6148396102364115  0.025335809380120197  1.0000
  H   H29       1.0  0.5911356883773293  0.8851603899244131  0.5253358097155336  1.0000
  H   H30       1.0  0.4088643113808173  0.8851603899244131  0.9746641896913484  1.0000
  H   H31       1.0  0.09113568834512532  0.38516038958728815  0.5253358093024888  1.0000
  H   H32       1.0  0.9088643114130215  0.38516038958728815  0.9746641901043931  1.0000
  H   H33       1.0  0.3748500074874125  0.023826096027174372  0.2028361532082726  1.0000
  H   H34       1.0  0.6251499923734901  0.023826096027174372  0.29716384754018554  1.0000
  H   H35       1.0  0.8748500073880628  0.5238260963642993  0.2028361523965546  1.0000
  H   H36       1.0  0.12514999234128604  0.5238260963642993  0.29716384712714083  1.0000
  H   H37       1.0  0.6251499926057933  0.9761739037965252  0.7971638475010034  1.0000
  H   H38       1.0  0.3748500077197157  0.9761739037965252  0.7028361531690904  1.0000
  H   H39       1.0  0.1251499925735893  0.47617390430995055  0.7971638470879586  1.0000
  H   H40       1.0  0.8748500076203662  0.47617390430995055  0.7028361523573725  1.0000
  H   H41       1.0  0.3736703261573317  0.47067622238051665  0.5243114576341649  1.0000
  H   H42       1.0  0.626329673600815  0.47067622238051665  0.9756885417727171  1.0000
  H   H43       1.0  0.8736703261895358  0.9706762218670915  0.5243114580472096  1.0000
  H   H44       1.0  0.12632967370016457  0.9706762218670915  0.9756885425844352  1.0000
  H   H45       1.0  0.6263296738043206  0.5293237782937332  0.47568854185034837  1.0000
  H   H46       1.0  0.37367032636083725  0.5293237782937332  0.02431145771179616  1.0000
  H   H47       1.0  0.12632967377211646  0.029323777956608274  0.4756885414373037  1.0000
  H   H48       1.0  0.8736703263930413  0.029323777956608274  0.02431145812484089  1.0000
  H   H49       1.0  0.3334333692458383  0.03873578473342937  0.903663631555866  1.0000
  H   H50       1.0  0.6665666309481173  0.03873578473342937  0.5963363678894652  1.0000
  H   H51       1.0  0.8334333692780422  0.5387357850705543  0.9036636319689105  1.0000
  H   H52       1.0  0.16656663061165802  0.5387357850705543  0.5963363686627341  1.0000
  H   H53       1.0  0.666566630715814  0.9612642150902703  0.09633636792864739  1.0000
  H   H54       1.0  0.33343336901353493  0.9612642150902703  0.40366363159504803  1.0000
  H   H55       1.0  0.16656663081516354  0.4612642147531454  0.09633636874036539  1.0000
  H   H56       1.0  0.8334333690457388  0.4612642147531454  0.40366363200809274  1.0000
  H   H57       1.0  0.4449102296299123  0.21399856515038437  0.7112102129909126  1.0000
  H   H58       1.0  0.555089770259788  0.21399856515038437  0.7887897876407322  1.0000
  H   H59       1.0  0.9449102295305627  0.7139985646369591  0.7112102121791946  1.0000
  H   H60       1.0  0.055089770227584045  0.7139985646369591  0.7887897872276876  1.0000
  H   H61       1.0  0.5550897704632936  0.7860014346733154  0.2887897877183635  1.0000
  H   H62       1.0  0.44491022983341777  0.7860014346733154  0.2112102130685438  1.0000
  H   H63       1.0  0.055089770431089556  0.2860014351867406  0.2887897873053188  1.0000
  H   H64       1.0  0.9449102297340682  0.2860014351867406  0.2112102122568258  1.0000
  H   H65       1.0  0.31313066995813876  0.34371196543311155  0.5846553349272331  1.0000
  H   H66       1.0  0.6868693299315616  0.34371196543311155  0.9153446657044118  1.0000
  H   H67       1.0  0.8131306704261516  0.8437119657702365  0.5846553353787269  1.0000
  H   H68       1.0  0.18686932989935748  0.8437119657702365  0.9153446652913669  1.0000
  H   H69       1.0  0.6868693295677046  0.6562880343905881  0.41534466451883106  1.0000
  H   H70       1.0  0.3131306701616443  0.6562880343905881  0.08465533500486433  1.0000
  H   H71       1.0  0.18686932966705425  0.15628803490401338  0.41534466533054915  1.0000
  H   H72       1.0  0.8131306701938483  0.15628803490401338  0.08465533541790905  1.0000
  H   H73       1.0  0.46358535092634595  0.19740070095450202  0.9965759636196668  1.0000
  H   H74       1.0  0.5364146488318007  0.19740070095450202  0.5034240357872152  1.0000
  H   H75       1.0  0.963585351394359  0.6974007004410767  0.9965759640711607  1.0000
  H   H76       1.0  0.03641464893115028  0.6974007004410767  0.5034240365989333  1.0000
  H   H77       1.0  0.5364146485994975  0.8025992988691977  0.0034240358263973925  1.0000
  H   H78       1.0  0.4635853511298515  0.8025992988691977  0.496575963697298  1.0000
  H   H79       1.0  0.036414648698847  0.302599299382623  0.003424036638115405  1.0000
  H   H80       1.0  0.9635853511620556  0.302599299382623  0.49657596411034277  1.0000
  H   H81       1.0  0.460780215523876  0.41151887813253785  0.984533344376389  1.0000
  H   H82       1.0  0.5392197848016332  0.41151887813253785  0.515466656293705  1.0000
  H   H83       1.0  0.9607802154245264  0.9115188784696627  0.9845333435646709  1.0000
  H   H84       1.0  0.03921978433362033  0.9115188784696627  0.5154666558422112  1.0000
  H   H85       1.0  0.53921978456933  0.5884811216911618  0.01546665633288714  1.0000
  H   H86       1.0  0.46078021529157265  0.5884811216911618  0.484533344415571  1.0000
  H   H87       1.0  0.03921978453712584  0.08848112220458709  0.01546665591984241  1.0000
  H   H88       1.0  0.9607802151922231  0.08848112220458709  0.48453334360385303  1.0000
  H   H89       1.0  0.49999999986467447  0.5216122383078471  0.2499999997618477  1.0000
  H   H90       1.0  0.999999999964024  0.021612238821272403  0.2500000005735657  1.0000
  H   H91       1.0  0.5000000000969778  0.47838776151585255  0.7499999997226655  1.0000
  H   H92       1.0  1.9632732277867081e-10  0.9783877610024272  0.7500000005343836  1.0000
  H   H93       1.0  0.49999999986467447  0.10693962370655544  0.2499999997618477  1.0000
  H   H94       1.0  0.999999999964024  0.6069396240436804  0.2500000005735657  1.0000
  H   H95       1.0  0.5000000000969778  0.8930603761171443  0.7499999997226655  1.0000
  H   H96       1.0  1.9632732277867081e-10  0.3930603766305695  0.7500000005343836  1.0000
  C   C1        1.0  0.3144122269041259  0.31642826111089634  0.001584819789019232  1.0000
  C   C2        1.0  0.6855877732610318  0.31642826111089634  0.4984151797731253  1.0000
  C   C3        1.0  0.8144122269363299  0.8164282614480214  0.0015848202020639585  1.0000
  C   C4        1.0  0.1855877732288278  0.8164282614480214  0.49841517936008056  1.0000
  C   C5        1.0  0.6855877730575263  0.6835717387128033  0.9984151796954941  1.0000
  C   C6        1.0  0.314412226832174  0.6835717387128033  0.5015848209361508  1.0000
  C   C7        1.0  0.18558777302532226  0.1835717392262286  0.9984151792824493  1.0000
  C   C8        1.0  0.8144122267328243  0.1835717392262286  0.5015848201244326  1.0000
  C   C9        1.0  0.33688439270004067  0.30863142114400266  0.17316824958450086  1.0000
  C   C10       1.0  0.6631156071608619  0.30863142114400266  0.32683175116395724  1.0000
  C   C11       1.0  0.8368843926006911  0.8086314206305775  0.17316824877278286  1.0000
  C   C12       1.0  0.16311560712865786  0.8086314206305775  0.3268317507509126  1.0000
  C   C13       1.0  0.6631156073931652  0.6913685786796969  0.8268317511247751  1.0000
  C   C14       1.0  0.3368843929323439  0.6913685786796969  0.6731682495453187  1.0000
  C   C15       1.0  0.16311560736096112  0.19136857919312228  0.8268317507117304  1.0000
  C   C16       1.0  0.8368843929645481  0.19136857919312228  0.6731682499583636  1.0000
  C   C17       1.0  0.31576717801146403  0.22123323734798328  0.901045265880132  1.0000
  C   C18       1.0  0.684232822314045  0.22123323734798328  0.5989547347899619  1.0000
  C   C19       1.0  0.8157671779121144  0.7212332376851083  0.901045265068414  1.0000
  C   C20       1.0  0.18423282228184107  0.7212332376851083  0.5989547343769172  1.0000
  C   C21       1.0  0.6842328220817417  0.7787667624757164  0.09895473482914403  1.0000
  C   C22       1.0  0.31576717777916075  0.7787667624757164  0.4010452659193141  1.0000
  C   C23       1.0  0.18423282204953775  0.27876676298914166  0.09895473441609931  1.0000
  C   C24       1.0  0.8157671776798113  0.27876676298914166  0.40104526510759614  1.0000
  C   C25       1.0  0.30078791477583855  0.2285994479884947  0.7314998999265426  1.0000
  C   C26       1.0  0.6992120855496706  0.2285994479884947  0.7685001007435512  1.0000
  C   C27       1.0  0.8007879148080426  0.7285994483256196  0.7314999003395872  1.0000
  C   C28       1.0  0.19921208508165775  0.7285994483256196  0.7685001002920575  1.0000
  C   C29       1.0  0.6992120853173672  0.771400551835205  0.26850010078273345  1.0000
  C   C30       1.0  0.30078791454353526  0.771400551835205  0.2314998999657247  1.0000
  C   C31       1.0  0.1992120852851633  0.27140055149808007  0.2685001003696888  1.0000
  C   C32       1.0  0.8007879145757393  0.27140055149808007  0.23149990037876944  1.0000
  C   C33       1.0  0.361202728160572  0.2020102434418469  0.24911997311185477  1.0000
  C   C34       1.0  0.6387972715687769  0.2020102434418469  0.25088002641184065  1.0000
  C   C35       1.0  0.8612027281927762  0.7020102437789719  0.24911997352489954  1.0000
  C   C36       1.0  0.1387972715365729  0.7020102437789719  0.25088002599879594  1.0000
  C   C37       1.0  0.6387972718010801  0.7979897563818527  0.7508800263726585  1.0000
  C   C38       1.0  0.3612027283928753  0.7979897563818527  0.7491199730726728  1.0000
  C   C39       1.0  0.13879727176887616  0.29798975689527807  0.7508800259596137  1.0000
  C   C40       1.0  0.8612027284250793  0.29798975689527807  0.7491199734857175  1.0000
  C   C41       1.0  0.3394643255373639  0.40287683960223614  0.27913326451182774  1.0000
  C   C42       1.0  0.6605356746277938  0.40287683960223614  0.22086673505031681  1.0000
  C   C43       1.0  0.839464325569568  0.902876839939361  0.27913326492487245  1.0000
  C   C44       1.0  0.16053567472714342  0.902876839939361  0.2208667358620348  1.0000
  C   C45       1.0  0.6605356744242883  0.5971231602214636  0.7208667349726855  1.0000
  C   C46       1.0  0.3394643253338584  0.5971231602214636  0.7791332644341965  1.0000
  C   C47       1.0  0.16053567452363787  0.09712315988433864  0.7208667357844035  1.0000
  C   C48       1.0  0.8394643253660624  0.09712315988433864  0.7791332648472413  1.0000
  C   C49       1.0  0.3891293271334631  0.19509794083683757  0.41892140901058317  1.0000
  C   C50       1.0  0.6108706730316946  0.19509794083683757  0.08107859055156137  1.0000
  C   C51       1.0  0.8891293271656672  0.6950979411739624  0.41892140942362793  1.0000
  C   C52       1.0  0.11087067313104419  0.6950979411739624  0.08107859136327938  1.0000
  C   C53       1.0  0.6108706728281892  0.8049020589868622  0.5810785904739301  1.0000
  C   C54       1.0  0.38912932692995755  0.8049020589868622  0.9189214089329518  1.0000
  C   C55       1.0  0.11087067292753866  0.3049020595002874  0.581078591285648  1.0000
  C   C56       1.0  0.8891293269621616  0.3049020595002874  0.9189214093459966  1.0000
  C   C57       1.0  0.3576199006407322  0.10510865359233235  0.1462010777487807  1.0000
  C   C58       1.0  0.6423800992201704  0.10510865359233235  0.3537989229996774  1.0000
  C   C59       1.0  0.8576199005413827  0.605108653078907  0.1462010769370627  1.0000
  C   C60       1.0  0.1423800991879663  0.605108653078907  0.3537989225866327  1.0000
  C   C61       1.0  0.6423800994524737  0.8948913462313673  0.8537989229604953  1.0000
  C   C62       1.0  0.35761990087303547  0.8948913462313673  0.6462010777095986  1.0000
  C   C63       1.0  0.14238009942026958  0.39489134674479265  0.8537989225474505  1.0000
  C   C64       1.0  0.8576199007736858  0.39489134674479265  0.6462010768978806  1.0000
  C   C65       1.0  0.3947219953172966  0.29127070270368643  0.5177976731967445  1.0000
  C   C66       1.0  0.6052780048766588  0.29127070270368643  0.9822023262485867  1.0000
  C   C67       1.0  0.8947219953495007  0.7912707021902611  0.5177976736097892  1.0000
  C   C68       1.0  0.10527800484445483  0.7912707021902611  0.982202325835542  1.0000
  C   C69       1.0  0.6052780046443555  0.7087292971200132  0.4822023262877688  1.0000
  C   C70       1.0  0.39472199508499334  0.7087292971200132  0.017797673235926646  1.0000
  C   C71       1.0  0.10527800461215155  0.2087292976334385  0.48220232587472406  1.0000
  C   C72       1.0  0.8947219951171973  0.2087292976334385  0.017797673648971363  1.0000
  C   C73       1.0  0.3683035855087251  0.3953567193467831  0.4467971730400762  1.0000
  C   C74       1.0  0.6316964142206238  0.3953567193467831  0.05320282648361923  1.0000
  C   C75       1.0  0.8683035855409291  0.8953567196839081  0.4467971734531209  1.0000
  C   C76       1.0  0.13169641418841987  0.8953567196839081  0.053202826070574506  1.0000
  C   C77       1.0  0.6316964144529271  0.6046432804769165  0.5532028264444371  1.0000
  C   C78       1.0  0.36830358574102834  0.6046432804769165  0.9467971730008942  1.0000
  C   C79       1.0  0.13169641398491436  0.1046432801397916  0.5532028259929431  1.0000
  C   C80       1.0  0.8683035857732324  0.1046432801397916  0.9467971734139388  1.0000
  C   C81       1.0  0.33520861651635475  0.11348202797237841  0.9797018767373729  1.0000
  C   C82       1.0  0.6647913832417919  0.11348202797237841  0.5202981226695091  1.0000
  C   C83       1.0  0.8352086165485588  0.6134820283095034  0.9797018771504177  1.0000
  C   C84       1.0  0.1647913833411415  0.6134820283095034  0.5202981234812272  1.0000
  C   C85       1.0  0.6647913834452974  0.8865179718513212  0.0202981227471404  1.0000
  C   C86       1.0  0.3352086167198603  0.8865179718513212  0.4797018768150042  1.0000
  C   C87       1.0  0.164791383544647  0.3865179715141963  0.020298123558858412  1.0000
  C   C88       1.0  0.8352086167520644  0.3865179715141963  0.4797018772280489  1.0000
  C   C89       1.0  0.4790508684484255  0.25087135315140247  0.10497405452973649  1.0000
  C   C90       1.0  0.5209491317167322  0.25087135315140247  0.3950259450324081  1.0000
  C   C91       1.0  0.9790508684806295  0.7508713534885274  0.10497405494278123  1.0000
  C   C92       1.0  0.020949131816081823  0.7508713534885274  0.3950259458441261  1.0000
  C   C93       1.0  0.5209491316447804  0.7491286466722972  0.8950259461795396  1.0000
  C   C94       1.0  0.47905086824492  0.7491286466722972  0.6049740544521052  1.0000
  C   C95       1.0  0.020949131612576305  0.2491286463351723  0.8950259457664947  1.0000
  C   C96       1.0  0.979050868277124  0.2491286463351723  0.60497405486515  1.0000
  C   C97       1.0  0.4783026352377734  0.36847484386976703  0.10210192239377518  1.0000
  C   C98       1.0  0.5216973644915756  0.36847484386976703  0.39789807712992026  1.0000
  C   C99       1.0  0.9783026352699774  0.8684748433563417  0.1021019228068199  1.0000
  C   C100      1.0  0.021697364459371545  0.8684748433563417  0.39789807671687555  1.0000
  C   C101      1.0  0.5216973647238788  0.6315251559539327  0.8978980770907381  1.0000
  C   C102      1.0  0.4783026354700767  0.6315251559539327  0.602101922354593  1.0000
  C   C103      1.0  0.02169736469167481  0.1315251564673579  0.8978980766776934  1.0000
  C   C104      1.0  0.9783026355022807  0.1315251564673579  0.6021019227676377  1.0000
  C   C105      1.0  0.49999999986467447  0.428707030989268  0.2499999997618477  1.0000
  C   C106      1.0  0.999999999964024  0.928707031326393  0.2500000005735657  1.0000
  C   C107      1.0  0.5000000000969778  0.5712929688344317  0.7499999997226655  1.0000
  C   C108      1.0  1.9632732277867081e-10  0.07129296849730675  0.7500000005343836  1.0000
  N   N1        1.0  0.49999999986467447  0.1957987015126144  0.2499999997618477  1.0000
  N   N2        1.0  0.999999999964024  0.6957987018497394  0.2500000005735657  1.0000
  N   N3        1.0  0.5000000000969778  0.8042012983110852  0.7499999997226655  1.0000
  N   N4        1.0  1.9632732277867081e-10  0.30420129797396034  0.7500000005343836  1.0000
  O   O1        1.0  0.2848666389163928  0.3297032815916553  0.6493382143697931  1.0000
  O   O2        1.0  0.7151333612775626  0.3297032815916553  0.850661785075538  1.0000
  O   O3        1.0  0.7848666389485968  0.8297032819287803  0.6493382147828379  1.0000
  O   O4        1.0  0.21513336137691227  0.8297032819287803  0.850661785887256  1.0000
  O   O5        1.0  0.7151333610452595  0.6702967182320444  0.3506617851147201  1.0000
  O   O6        1.0  0.28486663868408957  0.6702967182320444  0.14933821440897532  1.0000
  O   O7        1.0  0.215133361144609  0.17029671789491937  0.35066178592643815  1.0000
  O   O8        1.0  0.7848666387162936  0.17029671789491937  0.14933821482202003  1.0000
  O   O9        1.0  0.30609942068070234  0.13841599458687842  0.6410248714023296  1.0000
  O   O10       1.0  0.6939005790774443  0.13841599458687842  0.8589751280045523  1.0000
  O   O11       1.0  0.8060994207129064  0.6384159949240034  0.6410248718153743  1.0000
  O   O12       1.0  0.1939005791767939  0.6384159949240034  0.8589751288162705  1.0000
  O   O13       1.0  0.6939005792809498  0.8615840052368212  0.3589751280821837  1.0000
  O   O14       1.0  0.3060994208842079  0.8615840052368212  0.1410248714799609  1.0000
  O   O15       1.0  0.1939005793802994  0.3615840057502466  0.3589751288939017  1.0000
  O   O16       1.0  0.806099420916412  0.3615840057502466  0.14102487189300564  1.0000
  O   O17       1.0  0.42397546109122386  0.2892481580588892  0.6826055317263875  1.0000
  O   O18       1.0  0.5760245391027317  0.2892481580588892  0.8173944677189438  1.0000
  O   O19       1.0  0.923975461123428  0.789248157545464  0.6826055321394322  1.0000
  O   O20       1.0  0.07602453920208117  0.789248157545464  0.8173944685306617  1.0000
  O   O21       1.0  0.5760245388704283  0.7107518426153606  0.3173944677581258  1.0000
  O   O22       1.0  0.4239754608589206  0.7107518426153606  0.18260553176556965  1.0000
  O   O23       1.0  0.07602453896977791  0.21075184227823576  0.3173944685698438  1.0000
  O   O24       1.0  0.9239754608911247  0.21075184227823576  0.1826055321786144  1.0000
  Cl  Cl1       1.0  0.49999999986467447  0.9279567813857497  0.2499999997618477  1.0000
  Cl  Cl2       1.0  0.999999999964024  0.42795678189917497  0.2500000005735657  1.0000
  Cl  Cl3       1.0  0.5000000000969778  0.07204321843795003  0.7499999997226655  1.0000
  Cl  Cl4       1.0  1.9632732277867081e-10  0.5720432187750749  0.7500000005343836  1.0000
