data_image0
_chemical_formula_structural       H20C36N8F8I4
_chemical_formula_sum              "H20 C36 N8 F8 I4"
_cell_length_a       8.348068112755685
_cell_length_b       5.998717269803399
_cell_length_c       18.281682422819927
_cell_angle_alpha    90.0
_cell_angle_beta     90.2483375134044
_cell_angle_gamma    90.0

_space_group_name_H-M_alt    "P 1"
_space_group_IT_number       1

loop_
  _space_group_symop_operation_xyz
  'x, y, z'

loop_
  _atom_site_type_symbol
  _atom_site_label
  _atom_site_symmetry_multiplicity
  _atom_site_fract_x
  _atom_site_fract_y
  _atom_site_fract_z
  _atom_site_occupancy
  H   H1        1.0  0.07314043867163854  0.6834434055823347  0.20200853378801123  1.0000
  H   H2        1.0  0.9268595611897952  0.18344340639945933  0.2979914663217655  1.0000
  H   H3        1.0  0.9268595611109113  0.31655659445043915  0.7979914663233314  1.0000
  H   H4        1.0  0.0731404385927547  0.8165565936333145  0.7020085337895772  1.0000
  H   H5        1.0  0.2969895892071432  0.08257908111349198  0.2644815927668201  1.0000
  H   H6        1.0  0.7030104106456861  0.5825790802963674  0.23551840679595806  1.0000
  H   H7        1.0  0.7030104105668022  0.9174209189192819  0.7355184067975241  1.0000
  H   H8        1.0  0.2969895903261216  0.4174209197364065  0.7644815927668278  1.0000
  H   H9        1.0  0.2036281257487924  0.047236436934005845  0.12024912299897436  1.0000
  H   H10       1.0  0.7963718741126412  0.5472364377839043  0.3797508771108024  1.0000
  H   H11       1.0  0.7963718740337573  0.952763563098768  0.8797508771123685  1.0000
  H   H12       1.0  0.2036281256699086  0.4527635622488696  0.6202491230005404  1.0000
  H   H13       1.0  0.9152567624648404  0.7185718706394829  0.10861722781538191  1.0000
  H   H14       1.0  0.0847432373965932  0.2185718714566075  0.3913827722943948  1.0000
  H   H15       1.0  0.08474323731770939  0.2814281293932909  0.8913827722959609  1.0000
  H   H16       1.0  0.9152567623859565  0.7814281285761663  0.6086172278169479  1.0000
  H   H17       1.0  0.8146616410186384  0.8214146905712545  0.9880165036780864  1.0000
  H   H18       1.0  0.18533835988288988  0.3214146913883792  0.511983496433264  1.0000
  H   H19       1.0  0.1853383599617737  0.17858530946151926  0.01198349643169797  1.0000
  H   H20       1.0  0.8146616398996599  0.6785853086443947  0.4880165036780787  1.0000
  C   C1        1.0  0.4207617802636517  0.8097946996857224  0.5195038611767423  1.0000
  C   C2        1.0  0.5792382194400143  0.30979469883582395  0.9804961389361664  1.0000
  C   C3        1.0  0.5792382195188981  0.19020530034705146  0.48049613893460036  1.0000
  C   C4        1.0  0.4207617803425355  0.6902053011969499  0.01950386117517633  1.0000
  C   C5        1.0  0.4304932156643171  0.8599038474385472  0.44533709794692106  1.0000
  C   C6        1.0  0.5695067841971166  0.35990384658864866  0.054662902162855596  1.0000
  C   C7        1.0  0.5695067841182327  0.14009615259422672  0.5546629021644216  1.0000
  C   C8        1.0  0.43049321558543313  0.6400961534441252  0.9453370979484871  1.0000
  C   C9        1.0  0.5119635150748666  0.05444046040374612  0.4267669268406333  1.0000
  C   C10       1.0  0.48803648478656697  0.5544404595866215  0.07323307326914338  1.0000
  C   C11       1.0  0.4880364847076832  0.9455595396290277  0.5732330732707094  1.0000
  C   C12       1.0  0.5119635149959828  0.4455595404461523  0.9267669268421993  1.0000
  C   C13       1.0  0.11981009236533444  0.5148176136831356  0.20067858962795512  1.0000
  C   C14       1.0  0.8801899074874947  0.014817612833237122  0.2993214099348231  1.0000
  C   C15       1.0  0.8801899086064733  0.48518238634963834  0.7993214099348308  1.0000
  C   C16       1.0  0.11981009228645059  0.9851823871995368  0.7006785896295211  1.0000
  C   C17       1.0  0.23504315568927778  0.20299212068714625  0.2303388573279187  1.0000
  C   C18       1.0  0.7649568441635515  0.7029921215370447  0.2696611422348595  1.0000
  C   C19       1.0  0.7649568440846677  0.7970078793456277  0.7696611422364255  1.0000
  C   C20       1.0  0.23504315561039393  0.2970078784957291  0.7303388573294848  1.0000
  C   C21       1.0  0.19046661206553503  0.18270272304997623  0.15846976938734617  1.0000
  C   C22       1.0  0.8095333877958986  0.6827027222328517  0.34153023072243055  1.0000
  C   C23       1.0  0.8095333877170148  0.8172972769827976  0.8415302307239966  1.0000
  C   C24       1.0  0.19046661198665116  0.31729727779992223  0.6584697693889122  1.0000
  C   C25       1.0  0.05799375593724011  0.4412209829130261  0.06922346863087511  1.0000
  C   C26       1.0  0.9420062439241935  0.9412209837629245  0.4307765314789016  1.0000
  C   C27       1.0  0.9420062438453097  0.5587790171197478  0.9307765314804676  1.0000
  C   C28       1.0  0.057993755858356276  0.058779016269849306  0.5692234686324411  1.0000
  C   C29       1.0  0.9548693624966387  0.6234519817805269  0.06123977424008553  1.0000
  C   C30       1.0  0.04513063856265734  0.12345198093062833  0.4387602258681329  1.0000
  C   C31       1.0  0.04513063848377351  0.3765480182522471  0.938760225869699  1.0000
  C   C32       1.0  0.9548693624177548  0.8765480191021455  0.5612397742416516  1.0000
  C   C33       1.0  0.8972972317018744  0.6820453533617015  0.9924177223140327  1.0000
  C   C34       1.0  0.10270276800179173  0.182045354178826  0.5075822777988762  1.0000
  C   C35       1.0  0.10270276808067554  0.3179546466710724  0.0075822777973100835  1.0000
  C   C36       1.0  0.8972972317807582  0.8179546458539478  0.4924177223124666  1.0000
  N   N1        1.0  0.18952235636470519  0.4101887135748679  0.25621710597622555  1.0000
  N   N2        1.0  0.8104776434967284  0.9101887144247663  0.24378289413355111  1.0000
  N   N3        1.0  0.8104776434178446  0.589811286457906  0.7437828941351171  1.0000
  N   N4        1.0  0.18952235628582137  0.0898112856080075  0.7562171059777916  1.0000
  N   N5        1.0  0.11750021618232338  0.3825804412474362  0.13943666691506615  1.0000
  N   N6        1.0  0.8824997836791102  0.8825804420973347  0.3605633331947105  1.0000
  N   N7        1.0  0.8824997836002263  0.6174195587853377  0.8605633331962765  1.0000
  N   N8        1.0  0.11750021610343955  0.11741955793543923  0.6394366669166321  1.0000
  F   F1        1.0  0.5276664904336122  0.1147162366634681  0.3555688040139612  1.0000
  F   F2        1.0  0.47233350942782143  0.6147162375133666  0.1444311960958155  1.0000
  F   F3        1.0  0.4723335093489376  0.8852837633693057  0.6444311960973814  1.0000
  F   F4        1.0  0.5276664903547283  0.3852837625194073  0.8555688040155272  1.0000
  F   F5        1.0  0.34131822465984785  0.6231328852280629  0.5412893041112239  1.0000
  F   F6        1.0  0.658681776233076  0.12313288604518748  0.9587106954531281  1.0000
  F   F7        1.0  0.6586817763119598  0.376867114804711  0.458710695451562  1.0000
  F   F8        1.0  0.3413182247387317  0.8768671139875863  0.041289304109657934  1.0000
  I   I1        1.0  0.32247390540879456  0.6538022119733171  0.36468798327005075  1.0000
  I   I2        1.0  0.677526094452639  0.1538022111234187  0.13531201683972596  1.0000
  I   I3        1.0  0.6775260943737552  0.3461977880594567  0.635312016841292  1.0000
  I   I4        1.0  0.3224739053299107  0.8461977889093553  0.8646879832716168  1.0000
