data_image0
_chemical_formula_structural       H48C60O2F30P2S6
_chemical_formula_sum              "H48 C60 O2 F30 P2 S6"
_cell_length_a       7.633746703197305
_cell_length_b       12.359716386112297
_cell_length_c       17.730969173900977
_cell_angle_alpha    107.06697176740532
_cell_angle_beta     89.93114928406729
_cell_angle_gamma    92.90859035504953

_space_group_name_H-M_alt    "P 1"
_space_group_IT_number       1

loop_
  _space_group_symop_operation_xyz
  'x, y, z'

loop_
  _atom_site_type_symbol
  _atom_site_label
  _atom_site_symmetry_multiplicity
  _atom_site_fract_x
  _atom_site_fract_y
  _atom_site_fract_z
  _atom_site_occupancy
  H   H1        1.0  0.3585782029250532  0.8901301555029952  0.3926474310157937  1.0000
  H   H2        1.0  0.6414217973435729  0.10986984537946919  0.6073525694090356  1.0000
  H   H3        1.0  0.3110410618348057  0.9047464063282669  0.5323174781699683  1.0000
  H   H4        1.0  0.6889589383517344  0.09525359349590683  0.46768252166395236  1.0000
  H   H5        1.0  0.5849391541195847  0.5966385230045829  0.5030443789318602  1.0000
  H   H6        1.0  0.41506084614904126  0.4033614778778813  0.4969556214929692  1.0000
  H   H7        1.0  0.631784625987107  0.5822671961617181  0.3630373226020399  1.0000
  H   H8        1.0  0.3682153729098029  0.41773280390747514  0.636962677822736  1.0000
  H   H9        1.0  0.3174650498473292  0.32982951907659397  0.19407941466905546  1.0000
  H   H10       1.0  0.6825349503597731  0.6701704809953806  0.8059205857548902  1.0000
  H   H11       1.0  0.33803659241656914  0.5252359784603382  0.2823396102298337  1.0000
  H   H12       1.0  0.6619634077699709  0.47476402136383544  0.7176603896040868  1.0000
  H   H13       1.0  0.6626489652609651  0.42942233562090215  0.028985022714998143  1.0000
  H   H14       1.0  0.33735103492557506  0.5705776642032716  0.9710149771189226  1.0000
  H   H15       1.0  0.6906173923997195  0.623636018080009  0.11986774448317408  1.0000
  H   H16       1.0  0.30938260780738275  0.3763639819919656  0.8801322559407716  1.0000
  H   H17       1.0  0.1664777801850459  0.7240241464588968  0.2678672763573526  1.0000
  H   H18       1.0  0.8335222200220566  0.2759758536130777  0.7321327240665931  1.0000
  H   H19       1.0  0.9550433023516661  0.8351595627662711  0.2222506874417864  1.0000
  H   H20       1.0  0.04495669783487382  0.16484043705790238  0.7777493123921342  1.0000
  H   H21       1.0  0.3858504302780303  0.02644955788795802  0.1526005300195409  1.0000
  H   H22       1.0  0.6141495699290721  0.9735504421840164  0.8473994704044048  1.0000
  H   H23       1.0  0.5973775456212821  0.9133039733722174  0.19956828587813494  1.0000
  H   H24       1.0  0.402622454565258  0.0866960264519565  0.8004317139557858  1.0000
  H   H25       1.0  0.8757651081054688  0.8951162019614266  0.3671634826966506  1.0000
  H   H26       1.0  0.12423489208107116  0.1048837978627472  0.6328365171372701  1.0000
  H   H27       1.0  0.09024611905208  0.059481471524361444  0.38243272354922897  1.0000
  H   H28       1.0  0.9097538798242676  0.940518528297031  0.6175672762855218  1.0000
  H   H29       1.0  0.21257466182308057  0.16424185935000554  0.5154901296021991  1.0000
  H   H30       1.0  0.7874253384455455  0.8357581415324585  0.4845098708226302  1.0000
  H   H31       1.0  0.12030243324741792  0.5860374813483079  0.13585870530801875  1.0000
  H   H32       1.0  0.8796975669391222  0.41396251847586574  0.8641412945259018  1.0000
  H   H33       1.0  0.09167760092372547  0.37666985973630823  0.07939179662743152  1.0000
  H   H34       1.0  0.9083223993449007  0.623330141146156  0.9206082037973977  1.0000
  H   H35       1.0  0.9738000763453188  0.2900477626991587  0.9434406160258813  1.0000
  H   H36       1.0  0.02619992384122124  0.7099522371250149  0.05655938380803936  1.0000
  H   H37       1.0  0.9351503964485791  0.3562395061515056  0.21116994898010386  1.0000
  H   H38       1.0  0.06484960373796096  0.643760493672668  0.7888300508538166  1.0000
  H   H39       1.0  0.07363823263934884  0.2968216029307346  0.3183149622861972  1.0000
  H   H40       1.0  0.9263617675471912  0.7031783968934392  0.6816850375477235  1.0000
  H   H41       1.0  0.15595403510496095  0.43985573956025714  0.44606188198056756  1.0000
  H   H42       1.0  0.8440459650815791  0.5601442602639166  0.5539381178533531  1.0000
  H   H43       1.0  0.102153651911182  0.6434704447073594  0.46644674041516454  1.0000
  H   H44       1.0  0.8978463483574443  0.3565295561751048  0.5335532600096649  1.0000
  H   H45       1.0  0.9643148678295017  0.7031207403352066  0.358724466014795  1.0000
  H   H46       1.0  0.03568513110836958  0.29687926029667544  0.6412755338208392  1.0000
  H   H47       1.0  0.8838845735452198  0.5608356016905017  0.2313214439580013  1.0000
  H   H48       1.0  0.11611542664132027  0.439164398133672  0.7686785558759194  1.0000
  C   C1        1.0  0.49837043637905665  0.7352047205688994  0.3681056852765288  1.0000
  C   C2        1.0  0.5016295638895695  0.264795280313565  0.6318943151483005  1.0000
  C   C3        1.0  0.4091722382233165  0.8257395284556684  0.41637772518698873  1.0000
  C   C4        1.0  0.5908277619632235  0.17426047136850523  0.583622274646932  1.0000
  C   C5        1.0  0.38247393770238036  0.8346961741657194  0.4957293651292354  1.0000
  C   C6        1.0  0.6175260624841596  0.1653038256584543  0.5042706347046852  1.0000
  C   C7        1.0  0.4472263842159063  0.7519811717538727  0.5257187003696608  1.0000
  C   C8        1.0  0.5527736159706337  0.24801882807030112  0.4742812994642599  1.0000
  C   C9        1.0  0.5358073622922667  0.6607506224079938  0.4788701419925599  1.0000
  C   C10       1.0  0.4641926379148357  0.33924937766398083  0.5211298584313858  1.0000
  C   C11       1.0  0.5611568694569016  0.6527606984370699  0.3996843242096955  1.0000
  C   C12       1.0  0.43884312941944603  0.3472393013843226  0.6003156756250553  1.0000
  C   C13       1.0  0.5175520714786893  0.5872565615086022  0.2071525393715179  1.0000
  C   C14       1.0  0.48244792870785075  0.4127434383155716  0.7928474604624027  1.0000
  C   C15       1.0  0.3978971247064972  0.39404202175301384  0.17738819327110106  1.0000
  C   C16       1.0  0.6021028755415666  0.6059579788816495  0.8226118065637031  1.0000
  C   C17       1.0  0.41081161663352855  0.5049179035685508  0.2274460610017468  1.0000
  C   C18       1.0  0.5891883835530114  0.495082096255623  0.7725539388321738  1.0000
  C   C19       1.0  0.4895530767582768  0.36857213866171307  0.10679640546059704  1.0000
  C   C20       1.0  0.5104469234282633  0.6314278611624607  0.8932035943733236  1.0000
  C   C21       1.0  0.5922631035394941  0.4500402470254391  0.08431420481979215  1.0000
  C   C22       1.0  0.40773689664704593  0.5499597527987347  0.9156857950141284  1.0000
  C   C23       1.0  0.6068156181379777  0.5597026561941952  0.13542036686532893  1.0000
  C   C24       1.0  0.3931843820485623  0.4402973436299784  0.8645796329685916  1.0000
  C   C25       1.0  0.39539998052467373  0.812366659042332  0.23659285264599772  1.0000
  C   C26       1.0  0.6046000196618663  0.18763334078184177  0.7634071471879228  1.0000
  C   C27       1.0  0.21504731908206817  0.7900553620411236  0.24248929444988637  1.0000
  C   C28       1.0  0.7849526811044719  0.20994463778305011  0.7575107053840342  1.0000
  C   C29       1.0  0.09487240881762218  0.853008939971856  0.2166977721844538  1.0000
  C   C30       1.0  0.9051275913689178  0.14699105985231772  0.7833022276494668  1.0000
  C   C31       1.0  0.15971962761754904  0.9376083085799393  0.18504924306424647  1.0000
  C   C32       1.0  0.8402803725895535  0.062391691492035196  0.8149507573596992  1.0000
  C   C33       1.0  0.3382376994450603  0.9606784097862918  0.1779133353348058  1.0000
  C   C34       1.0  0.6617622994312873  0.039321590035100586  0.8220866644999449  1.0000
  C   C35       1.0  0.4569093344700608  0.8970309544006408  0.20409101613603542  1.0000
  C   C36       1.0  0.5430906657370416  0.1029690456713338  0.7959089842879102  1.0000
  C   C37       1.0  0.9310403421113463  0.9409734397448916  0.4251523229597632  1.0000
  C   C38       1.0  0.06895965807519377  0.059026560079281996  0.5748476768741574  1.0000
  C   C39       1.0  0.05113553314780694  0.03326321286045573  0.43390794625814294  1.0000
  C   C40       1.0  0.9488644670592954  0.9667367872115189  0.5660920541658028  1.0000
  C   C41       1.0  0.11955926178096712  0.0920449040124495  0.5086157126354051  1.0000
  C   C42       1.0  0.880440738405573  0.9079550958117242  0.4913842871985155  1.0000
  C   C43       1.0  0.06733056979858384  0.5485183156745597  0.07633321015696524  1.0000
  C   C44       1.0  0.9326694304085185  0.4514816843974148  0.9236667902669804  1.0000
  C   C45       1.0  0.05219109767066787  0.43071873272270295  0.044520021902733964  1.0000
  C   C46       1.0  0.9478089025364345  0.5692812673492715  0.9554799785212116  1.0000
  C   C47       1.0  0.9853129138502252  0.38192912995798173  0.9680419856397956  1.0000
  C   C48       1.0  0.01468708633631486  0.618070869866192  0.03195801419412499  1.0000
  C   C49       1.0  0.9734704906126183  0.41946634136303146  0.26670542743415476  1.0000
  C   C50       1.0  0.026529508263729226  0.580533658458361  0.7332945724005959  1.0000
  C   C51       1.0  0.05118473343297324  0.3858984411647738  0.3270111945015601  1.0000
  C   C52       1.0  0.9488152667535668  0.6141015586594  0.6729888053323606  1.0000
  C   C53       1.0  0.0979143647259809  0.46647474708066133  0.39866237699959833  1.0000
  C   C54       1.0  0.9020856354811214  0.5335252529913131  0.6013376234243473  1.0000
  C   C55       1.0  0.06718607966010355  0.5807414888110051  0.410322738861622  1.0000
  C   C56       1.0  0.9328139205469987  0.4192585112609695  0.5896772615623236  1.0000
  C   C57       1.0  0.9904453033083817  0.6143646482791039  0.34984957770520503  1.0000
  C   C58       1.0  0.009554696898720664  0.3856353517928707  0.6501504227187406  1.0000
  C   C59       1.0  0.9439964113317425  0.5338258179456328  0.2780374287142658  1.0000
  C   C60       1.0  0.05600358756516746  0.46617418212356054  0.7219625717105101  1.0000
  O   O1        1.0  0.7397339064537677  0.7751380139395132  0.2618698297935042  1.0000
  O   O2        1.0  0.2602660937327724  0.2248619858846605  0.7381301700404165  1.0000
  F   F1        1.0  0.45587425391367054  0.8990670959914137  0.6560947237959389  1.0000
  F   F2        1.0  0.5441257462728695  0.10093290383275999  0.34390527603798177  1.0000
  F   F3        1.0  0.6190883646947226  0.7434943638514899  0.6427941548800168  1.0000
  F   F4        1.0  0.38091163549181734  0.2565056359726839  0.3572058449539039  1.0000
  F   F5        1.0  0.36887883704423124  0.6263052929492515  0.609260101085917  1.0000
  F   F6        1.0  0.6311211631628711  0.373694707122723  0.3907398993380286  1.0000
  F   F7        1.0  0.20562182212191402  0.7824067227486698  0.6218146934000863  1.0000
  F   F8        1.0  0.7943781768159572  0.21759327788321223  0.37818530643554804  1.0000
  F   F9        1.0  0.3827192010513139  0.7718849115507043  0.7207333270275655  1.0000
  F   F10       1.0  0.6172807991352262  0.2281150882734695  0.2792666728063551  1.0000
  F   F11       1.0  0.44021443121596604  0.26827935529222197  0.9641157461913016  1.0000
  F   F12       1.0  0.5597855676603816  0.7317206445291705  0.03588425364344931  1.0000
  F   F13       1.0  0.5092380838662863  0.17135955970744013  0.11333639240595568  1.0000
  F   F14       1.0  0.4907619150100612  0.8286404401139522  0.886663607428795  1.0000
  F   F15       1.0  0.2649225947651612  0.212187009869785  0.05285347624291744  1.0000
  F   F16       1.0  0.7350774055034649  0.7878129910126793  0.947146524181912  1.0000
  F   F17       1.0  0.6844383737092071  0.22645743230251478  0.024232733111081328  1.0000
  F   F18       1.0  0.31556162649789526  0.7735425677694598  0.9757672673128646  1.0000
  F   F19       1.0  0.4616625961148299  0.0967925473528638  0.9824488600001529  1.0000
  F   F20       1.0  0.5383374040717102  0.9032074524713098  0.017551139833767694  1.0000
  F   F21       1.0  0.8907584111596756  0.04179571402788358  0.23183286360259575  1.0000
  F   F22       1.0  0.10924158904742677  0.958204286044091  0.76816713682135  1.0000
  F   F23       1.0  0.12050073476601078  0.13928590774814148  0.19236967925276588  1.0000
  F   F24       1.0  0.8794992654410916  0.8607140923238329  0.8076303211711798  1.0000
  F   F25       1.0  0.10785581664859581  0.006347760842474046  0.06944591325688564  1.0000
  F   F26       1.0  0.8921441835379442  0.9936522389816997  0.930554086577035  1.0000
  F   F27       1.0  0.8775002142693823  0.9101469865961055  0.10926177102964653  1.0000
  F   F28       1.0  0.12249978593772011  0.08985301347586912  0.8907382293942991  1.0000
  F   F29       1.0  0.868168653593244  0.09660977948918771  0.12197584969573555  1.0000
  F   F30       1.0  0.13183134661385842  0.903390220582787  0.8780241507282102  1.0000
  P   P1        1.0  0.5548892983265039  0.7319657939066824  0.26842322514984573  1.0000
  P   P2        1.0  0.4451107018805984  0.26803420616529217  0.7315767752741  1.0000
  S   S1        1.0  0.4128407220547441  0.7628032749690475  0.6292863295741694  1.0000
  S   S2        1.0  0.5871592781317959  0.2371967248551262  0.37071367025975127  1.0000
  S   S3        1.0  0.47508101671358444  0.22423182618293577  0.04082524802938549  1.0000
  S   S4        1.0  0.5249189834729556  0.7757681736412378  0.959174751804535  1.0000
  S   S5        1.0  0.004725359217633839  0.021191819740670952  0.1512648930795298  1.0000
  S   S6        1.0  0.9952746409894686  0.9788081803313037  0.8487351073444159  1.0000
