data_image0
_chemical_formula_structural       H38C40N6O16
_chemical_formula_sum              "H38 C40 N6 O16"
_cell_length_a       7.417940068880915
_cell_length_b       8.174886365260084
_cell_length_c       16.297426632953798
_cell_angle_alpha    92.3885707404895
_cell_angle_beta     90.75449164890341
_cell_angle_gamma    115.23764538870702

_space_group_name_H-M_alt    "P 1"
_space_group_IT_number       1

loop_
  _space_group_symop_operation_xyz
  'x, y, z'

loop_
  _atom_site_type_symbol
  _atom_site_label
  _atom_site_symmetry_multiplicity
  _atom_site_fract_x
  _atom_site_fract_y
  _atom_site_fract_z
  _atom_site_occupancy
  H   H1        1.0  0.8825210713252506  0.0457056615857979  0.6492731669548599  1.0000
  H   H2        1.0  0.11747892790360337  0.9542943384758474  0.35072683352371314  1.0000
  H   H3        1.0  0.18089821089983293  0.9661224467458507  0.8804681486035577  1.0000
  H   H4        1.0  0.8191017883316993  0.03387755331534358  0.11953185126142962  1.0000
  H   H5        1.0  0.259219185960857  0.015452060127693713  0.6774047685242746  1.0000
  H   H6        1.0  0.7407808139723415  0.9845479385729897  0.3225952313179914  1.0000
  H   H7        1.0  0.17247954975746907  0.22445769912769692  0.977127334969559  1.0000
  H   H8        1.0  0.8275204494713848  0.7755423009339483  0.022872665509014168  1.0000
  H   H9        1.0  0.4973366938476757  0.08396073815420246  0.9473529293221037  1.0000
  H   H10       1.0  0.5026633067290602  0.916039261900662  0.052647070552130304  1.0000
  H   H11       1.0  0.9667327255384044  0.09425673286044431  0.7895226348320225  1.0000
  H   H12       1.0  0.033267275035653195  0.9057432671948713  0.2104773656557974  1.0000
  H   H13       1.0  0.302051429295795  0.6782986372991775  0.9129573651549294  1.0000
  H   H14       1.0  0.697948571280941  0.3217013627556871  0.08704263471930465  1.0000
  H   H15       1.0  0.9526770697862713  0.10479347016620055  0.48131040177808204  1.0000
  H   H16       1.0  0.04732293079046457  0.8952065298886639  0.518689598096152  1.0000
  H   H17       1.0  0.6892687191291118  0.6542417068850912  0.7514688067264474  1.0000
  H   H18       1.0  0.3107312814449457  0.34575829317022444  0.2485311937613724  1.0000
  H   H19       1.0  0.6882625434537144  0.437361597879504  0.7489116437859358  1.0000
  H   H20       1.0  0.3117374571230216  0.5626384021753604  0.25108835608829827  1.0000
  H   H21       1.0  0.5452657529025527  0.8652666816339065  0.5244291190027821  1.0000
  H   H22       1.0  0.45473424767418325  0.13473331842095804  0.47557088087145183  1.0000
  H   H23       1.0  0.4620937986071518  0.8774842205476993  0.42595126014519796  1.0000
  H   H24       1.0  0.5379062019695842  0.12251577950716523  0.5740487397290361  1.0000
  H   H25       1.0  0.9557333769855584  0.2843620603351106  0.36021763133797774  1.0000
  H   H26       1.0  0.044266623591177605  0.7156379397197539  0.6397823685362564  1.0000
  H   H27       1.0  0.5877325465859009  0.6448178586974361  0.6188606974716419  1.0000
  H   H28       1.0  0.4122674539881567  0.3551821413578794  0.38113930301617793  1.0000
  H   H29       1.0  0.39041072704714863  0.6935446399733729  0.6565181629029807  1.0000
  H   H30       1.0  0.6095892735295875  0.3064553600814916  0.3434818369712534  1.0000
  H   H31       1.0  0.6144218935526421  0.4051505240357928  0.8953825580612693  1.0000
  H   H32       1.0  0.3855781070240938  0.5948494760190717  0.10461744181296483  1.0000
  H   H33       1.0  0.8224626534751386  0.6147608684577458  0.884915227960286  1.0000
  H   H34       1.0  0.17753734575639377  0.3852391316034484  0.11508477190470125  1.0000
  H   H35       1.0  0.1742286712723093  0.6072601172953631  0.35835229389477463  1.0000
  H   H36       1.0  0.8257713293044266  0.39273988275950134  0.6416477059794594  1.0000
  H   H37       1.0  0.32916948448182415  0.2920681183395768  0.7777832432762064  1.0000
  H   H38       1.0  0.6708305160949117  0.7079318817152876  0.22221675659802778  1.0000
  C   C1        1.0  0.7480444500181388  0.09884515291611724  0.8759944820710013  1.0000
  C   C2        1.0  0.2519555505585972  0.9011548471387473  0.12400551780323284  1.0000
  C   C3        1.0  0.4861948414320999  0.00981592037611796  0.7392003712908899  1.0000
  C   C4        1.0  0.5138051577994325  0.9901840796850763  0.2607996285740974  1.0000
  C   C5        1.0  0.5492824892599956  0.06890109868836582  0.8866239499905864  1.0000
  C   C6        1.0  0.4507175113140621  0.9310989013669498  0.11337605049723347  1.0000
  C   C7        1.0  0.8140300304936089  0.07548813683288608  0.7977361461217741  1.0000
  C   C8        1.0  0.18596997008312713  0.9245118632219783  0.20226385375245992  1.0000
  C   C9        1.0  0.4177296604170382  0.01947306005858547  0.8186134582028579  1.0000
  C   C10       1.0  0.5822703401596979  0.9805269399962792  0.18138654167137622  1.0000
  C   C11       1.0  0.6838256800608993  0.0323182132536308  0.729298284499507  1.0000
  C   C12       1.0  0.31617431917063304  0.9676817868075634  0.27070171536548043  1.0000
  C   C13       1.0  0.887362934980669  0.1576783822214107  0.9481161722995994  1.0000
  C   C14       1.0  0.11263706425086345  0.8423216178397837  0.05188382756538792  1.0000
  C   C15       1.0  0.05475245877700469  0.24732398826044794  0.480032378554721  1.0000
  C   C16       1.0  0.9452475404545276  0.7526760118007464  0.5199676213102663  1.0000
  C   C17       1.0  0.31982678993748564  0.6265340853780693  0.4767780604254455  1.0000
  C   C18       1.0  0.6801732092940467  0.3734659146831249  0.5232219394395418  1.0000
  C   C19       1.0  0.6205517400391635  0.520158919995763  0.7774914388793726  1.0000
  C   C20       1.0  0.3794482605348942  0.4798410800595526  0.22250856160844715  1.0000
  C   C21       1.0  0.31278108459068293  0.5248918745869213  0.5449256964517496  1.0000
  C   C22       1.0  0.6872189146408494  0.47510812547427295  0.45507430341323774  1.0000
  C   C23       1.0  0.18407065453692836  0.34113974603189506  0.5463669839230283  1.0000
  C   C24       1.0  0.8159293460398076  0.6588602540229693  0.45363301595120586  1.0000
  C   C25       1.0  0.0573356626218868  0.3486472712362404  0.41274298446050256  1.0000
  C   C26       1.0  0.9426643366096455  0.6513527288249539  0.5872570154044846  1.0000
  C   C27       1.0  0.5528262639237026  0.6310017755721038  0.914279258652822  1.0000
  C   C28       1.0  0.4471737353051513  0.3689982244895415  0.0857207418257511  1.0000
  C   C29       1.0  0.42516775880511093  0.5894749571070002  0.6249202296606956  1.0000
  C   C30       1.0  0.5748322404264214  0.4105250429541942  0.37507977020429173  1.0000
  C   C31       1.0  0.6624403899400446  0.5397049197575456  0.8697211842200083  1.0000
  C   C32       1.0  0.33755960929148776  0.46029508030364874  0.1302788156449789  1.0000
  C   C33       1.0  0.18397251396806588  0.532963697677622  0.410970231779881  1.0000
  C   C34       1.0  0.8160274866086703  0.4670363023772426  0.589029768094353  1.0000
  C   C35       1.0  0.21071390881192387  0.28110791242914357  0.6273733066697206  1.0000
  C   C36       1.0  0.789286091764812  0.7188920876257209  0.37262669320451347  1.0000
  C   C37       1.0  0.39601384184967237  0.43254102055657084  0.7578431886651394  1.0000
  C   C38       1.0  0.6039861587270635  0.5674589794982936  0.24215681120909474  1.0000
  C   C39       1.0  0.2861445124689264  0.5274828022459706  0.8053272835842418  1.0000
  C   C40       1.0  0.7138554881078095  0.47251719780889384  0.1946727162899923  1.0000
  N   N1        1.0  0.35167173993021345  0.42551631081046115  0.6709254137400779  1.0000
  N   N2        1.0  0.6483282606465224  0.5744836892444033  0.3290745861341562  1.0000
  N   N3        1.0  0.3742308317409399  0.6138194008775935  0.8807823202121523  1.0000
  N   N4        1.0  0.6257691674905924  0.3861805991836008  0.11921767965283496  1.0000
  N   N5        1.0  0.4479411655336322  0.8048646258965825  0.4764469017409187  1.0000
  N   N6        1.0  0.5520588350404254  0.1951353741587331  0.523553098746901  1.0000
  O   O1        1.0  0.8431910708717727  0.1868539334119621  0.01905993508568709  1.0000
  O   O2        1.0  0.15680892905874724  0.8131460652891722  0.9809400653701646  1.0000
  O   O3        1.0  0.7351327398475372  0.011744898433590861  0.6509046326712131  1.0000
  O   O4        1.0  0.264867259383995  0.9882551016276033  0.3490953671937741  1.0000
  O   O5        1.0  0.22052109237659337  0.9820645587022608  0.8230072315040956  1.0000
  O   O6        1.0  0.7794789068522606  0.01793544135938459  0.17699276897447755  1.0000
  O   O7        1.0  0.3673211188472332  0.9735352265474532  0.6704876729064554  1.0000
  O   O8        1.0  0.6326788803842991  0.02646477351374095  0.329512326958532  1.0000
  O   O9        1.0  0.07037818728582164  0.17799368500980992  0.9296651282782341  1.0000
  O   O10       1.0  0.9296218113021731  0.8220063136972031  0.07033487155478504  1.0000
  O   O11       1.0  0.12959524519192084  0.5272199470063711  0.7806491859989199  1.0000
  O   O12       1.0  0.8704047540396116  0.47278005305482323  0.21935081386606742  1.0000
  O   O13       1.0  0.1210398915113679  0.1249692914132892  0.6551146030795542  1.0000
  O   O14       1.0  0.8789601077201643  0.875030708647905  0.3448853967854333  1.0000
  O   O15       1.0  0.6136805921259662  0.7183026508869301  0.9810922460910997  1.0000
  O   O16       1.0  0.3863194071055662  0.2816973491742642  0.018907753773887592  1.0000
