data_image0
_chemical_formula_structural       H108C128N52
_chemical_formula_sum              "H108 C128 N52"
_cell_length_a       9.23179634755799
_cell_length_b       21.36031215550675
_cell_length_c       15.434649078118529
_cell_angle_alpha    90.0
_cell_angle_beta     97.7942271038311
_cell_angle_gamma    90.0

_space_group_name_H-M_alt    "P 1"
_space_group_IT_number       1

loop_
  _space_group_symop_operation_xyz
  'x, y, z'

loop_
  _atom_site_type_symbol
  _atom_site_label
  _atom_site_symmetry_multiplicity
  _atom_site_fract_x
  _atom_site_fract_y
  _atom_site_fract_z
  _atom_site_occupancy
  H   H1        1.0  0.6396995276140987  0.8199098666020646  0.3021613023334827  1.0000
  H   H2        1.0  0.3603004723038625  0.3199098669650451  0.19783869764881937  1.0000
  H   H3        1.0  0.36030047292303263  0.18009013314013242  0.6978386979374008  1.0000
  H   H4        1.0  0.639699527149167  0.68009013324531  0.8021613018808216  1.0000
  H   H5        1.0  0.7574612305337574  0.9173584106517064  0.2520712850017478  1.0000
  H   H6        1.0  0.24253876938420382  0.41735841101468696  0.24792871498055427  1.0000
  H   H7        1.0  0.24253876891009907  0.08264158909049057  0.747928715175019  1.0000
  H   H8        1.0  0.7574612311621005  0.5826415891956681  0.7520712846432033  1.0000
  H   H9        1.0  0.44836211230292045  0.9165592551957503  0.015440058368481776  1.0000
  H   H10       1.0  0.5516378876150407  0.4165592550905728  0.48455994161382027  1.0000
  H   H11       1.0  0.5516378882433839  0.08344074501460469  0.9845599412552757  1.0000
  H   H12       1.0  0.44836211182881575  0.5834407446516243  0.5154400585629466  1.0000
  H   H13       1.0  0.33397945509619703  0.8202488424535076  0.06588754557504799  1.0000
  H   H14       1.0  0.6660205448217642  0.320248842816488  0.4341124544072541  1.0000
  H   H15       1.0  0.6660205443476594  0.17975115728868948  0.934112454601719  1.0000
  H   H16       1.0  0.33397945571536714  0.679751157393867  0.5658875458636294  1.0000
  H   H17       1.0  0.037039629728165185  0.6438874619374076  0.996336272035353  1.0000
  H   H18       1.0  0.9629603703440345  0.14388746230038812  0.5036637277828693  1.0000
  H   H19       1.0  0.9629603697156913  0.3561125378047894  0.0036637281414139545  1.0000
  H   H20       1.0  0.03703963020226996  0.8561125379099669  0.4963362718408881  1.0000
  H   H21       1.0  0.8485359954142224  0.5931749464969093  0.8887665713439252  1.0000
  H   H22       1.0  0.1514640046579772  0.09317494685988982  0.6112334284742971  1.0000
  H   H23       1.0  0.15146400512290895  0.40682505324528767  0.11123342892695832  1.0000
  H   H24       1.0  0.8485359947950523  0.9068250533504653  0.3887665710553437  1.0000
  H   H25       1.0  0.7392363584519898  0.46835123883809465  0.08978115484343709  1.0000
  H   H26       1.0  0.26076364255924633  0.9683512389432721  0.4102188452329815  1.0000
  H   H27       1.0  0.26076364209431463  0.5316487609041023  0.9102188447803204  1.0000
  H   H28       1.0  0.739236357977885  0.03164876079892485  0.5897811550379018  1.0000
  H   H29       1.0  0.9258776804858907  0.5215947060552534  0.19834698007606824  1.0000
  H   H30       1.0  0.07412231943207058  0.02159470595007589  0.30165301990623383  1.0000
  H   H31       1.0  0.0741223189579658  0.4784052936869436  0.8016530201006987  1.0000
  H   H32       1.0  0.9258776800209588  0.9784052937921212  0.6983469796234071  1.0000
  H   H33       1.0  0.26135876541415987  0.6159976775717603  0.29452735407647995  1.0000
  H   H34       1.0  0.7386412345038013  0.1159976774665828  0.20547264590582204  1.0000
  H   H35       1.0  0.7386412351321445  0.3840023226385947  0.7054726455472774  1.0000
  H   H36       1.0  0.26135876494005505  0.8840023222756143  0.7945273542709448  1.0000
  H   H37       1.0  0.4207932842221553  0.6641525838536342  0.3048899181772199  1.0000
  H   H38       1.0  0.579206715695806  0.1641525837484567  0.19511008180508216  1.0000
  H   H39       1.0  0.5792067152217012  0.3358474163567208  0.6951100819995472  1.0000
  H   H40       1.0  0.4207932848413254  0.8358474164618984  0.8048899184658013  1.0000
  H   H41       1.0  0.2775635896076432  0.7557928513623353  0.3456292725853426  1.0000
  H   H42       1.0  0.722436410310318  0.2557928512571579  0.15437072739695945  1.0000
  H   H43       1.0  0.7224364109386612  0.24420714884801964  0.6543707270384148  1.0000
  H   H44       1.0  0.27756358913353846  0.7442071489531971  0.8456292727798075  1.0000
  H   H45       1.0  0.2904854660725  0.693312192358673  0.42211388768237884  1.0000
  H   H46       1.0  0.7095145349387361  0.19331219225349558  0.07788611239403978  1.0000
  H   H47       1.0  0.7095145344646313  0.30668780785168187  0.5778861125885046  1.0000
  H   H48       1.0  0.29048546560756827  0.8066878079568595  0.9221138872297175  1.0000
  H   H49       1.0  0.04337830346328023  0.612045397783647  0.3271262576253144  1.0000
  H   H50       1.0  0.9566216964546811  0.11204539767846951  0.17287374235698766  1.0000
  H   H51       1.0  0.956621697073851  0.387954602426708  0.672873742645569  1.0000
  H   H52       1.0  0.0433783029983485  0.8879546025318855  0.8271262571726533  1.0000
  H   H53       1.0  0.07863634116532281  0.803415561770046  0.3838873401593898  1.0000
  H   H54       1.0  0.9213636587526384  0.30341556166486855  0.11611265982291229  1.0000
  H   H55       1.0  0.9213636593809815  0.19658443844030893  0.6161126594643677  1.0000
  H   H56       1.0  0.07863634069121804  0.6965844385454865  0.8838873403538546  1.0000
  H   H57       1.0  0.9049895138228305  0.6526559620715087  0.3748052442200621  1.0000
  H   H58       1.0  0.09501048609513055  0.15265596243448912  0.12519475576223996  1.0000
  H   H59       1.0  0.09501048563019882  0.3473440376706884  0.6251947553095788  1.0000
  H   H60       1.0  0.9049895144420007  0.8473440377758659  0.8748052445086436  1.0000
  H   H61       1.0  0.08116710233094437  0.7512349502749722  0.47510127194859797  1.0000
  H   H62       1.0  0.9188328975870168  0.25123495016979475  0.02489872803370402  1.0000
  H   H63       1.0  0.918832898206187  0.24876504993538273  0.5248987283222855  1.0000
  H   H64       1.0  0.0811671018568396  0.7487650495724023  0.9751012721430629  1.0000
  H   H65       1.0  0.9173022580794777  0.7604110605571186  0.4000310499432383  1.0000
  H   H66       1.0  0.08269774293175826  0.26041106045194107  0.09996895013318029  1.0000
  H   H67       1.0  0.08269774246682654  0.23958893965323644  0.5999689496805191  1.0000
  H   H68       1.0  0.9173022576053731  0.7395889392902559  0.9000310501377031  1.0000
  H   H69       1.0  0.07444410136306126  0.6334291615917168  0.4399919822647315  1.0000
  H   H70       1.0  0.9255558985548998  0.13342916148653935  0.06000801771757052  1.0000
  H   H71       1.0  0.9255558980899682  0.36657083861863815  0.5600080172649093  1.0000
  H   H72       1.0  0.07444410198223138  0.8665708387238157  0.9399919825533131  1.0000
  H   H73       1.0  0.7938321768964174  0.6669230934589793  0.23360801168094072  1.0000
  H   H74       1.0  0.20616782302154377  0.16692309335380176  0.26639198830136135  1.0000
  H   H75       1.0  0.20616782255661203  0.33307690675137575  0.7663919878487001  1.0000
  H   H76       1.0  0.7938321775155874  0.8330769068565531  0.7336080119695221  1.0000
  H   H77       1.0  0.5819048862767029  0.6163313314036011  0.14371623221180208  1.0000
  H   H78       1.0  0.41809511364125823  0.11633133129842357  0.35628376777049997  1.0000
  H   H79       1.0  0.4180951131671534  0.3836686683385959  0.8562837679649649  1.0000
  H   H80       1.0  0.581904886895873  0.8836686684437735  0.6437162325003836  1.0000
  H   H81       1.0  0.5945767459866261  0.7587836639279434  0.9455000849343003  1.0000
  H   H82       1.0  0.4054232540855735  0.2587836642909239  0.5544999148839219  1.0000
  H   H83       1.0  0.40542325346640334  0.2412163358142536  0.05449991459534057  1.0000
  H   H84       1.0  0.5945767464515578  0.7412163359194311  0.44550008538696145  1.0000
  H   H85       1.0  0.8060181660553211  0.8080240721365306  0.03420998119489834  1.0000
  H   H86       1.0  0.19398183386264015  0.3080240720313531  0.4657900187874037  1.0000
  H   H87       1.0  0.19398183338853536  0.19197592807382435  0.9657900189818686  1.0000
  H   H88       1.0  0.8060181666744911  0.6919759281790019  0.5342099814834798  1.0000
  H   H89       1.0  0.9716919989998826  0.9194460322967162  0.08515825254715374  1.0000
  H   H90       1.0  0.028308000918078755  0.4194460321915387  0.41484174743514834  1.0000
  H   H91       1.0  0.028308001546421914  0.08055396791363881  0.9148417470766036  1.0000
  H   H92       1.0  0.9716919985257777  0.5805539680188163  0.5851582527416186  1.0000
  H   H93       1.0  0.0790528908675436  0.02134770815521268  0.04849648730843978  1.0000
  H   H94       1.0  0.9209471090504177  0.5213477082603901  0.45150351267386224  1.0000
  H   H95       1.0  0.9209471096695878  0.9786522915869844  0.9515035129624437  1.0000
  H   H96       1.0  0.07905289039343884  0.4786522914818068  0.5484964875029046  1.0000
  H   H97       1.0  0.42195901361712207  0.999717395726111  0.26641369003260607  1.0000
  H   H98       1.0  0.578040987394114  0.4997173960890914  0.23358631004381253  1.0000
  H   H99       1.0  0.5780409869291823  0.0002826040160861493  0.7335863095911513  1.0000
  H   H100      1.0  0.42195901314301726  0.5002826041212636  0.7664136902270708  1.0000
  H   H101      1.0  0.31265762661016216  0.8975735551250962  0.3024161711871107  1.0000
  H   H102      1.0  0.687342373307799  0.39757355501991865  0.19758382879519126  1.0000
  H   H103      1.0  0.6873423728336941  0.10242644508525887  0.6975838289896561  1.0000
  H   H104      1.0  0.3126576261452304  0.6024264451904364  0.8024161707344496  1.0000
  H   H105      1.0  0.9872523071396996  0.7436815358480017  0.24723447818459057  1.0000
  H   H106      1.0  0.012747692778261583  0.24368153621098212  0.25276552179771145  1.0000
  H   H107      1.0  0.012747692304156812  0.2563184638941954  0.7527655219921764  1.0000
  H   H108      1.0  0.9872523077680428  0.7563184639993729  0.7472344778260459  1.0000
  C   C1        1.0  0.4822235178367632  0.8141053386018483  0.18629998689156432  1.0000
  C   C2        1.0  0.517776482081198  0.3141053384966708  0.31370001309073775  1.0000
  C   C3        1.0  0.517776482709541  0.1858946616085067  0.8137000127321932  1.0000
  C   C4        1.0  0.48222351736265845  0.6858946612455262  0.6862999870860292  1.0000
  C   C5        1.0  0.6008975076941816  0.8416110059218145  0.2393680812527635  1.0000
  C   C6        1.0  0.3991024933170545  0.34161100628479496  0.2606319188236551  1.0000
  C   C7        1.0  0.3991024928429497  0.1583889938203825  0.7606319190181201  1.0000
  C   C8        1.0  0.600897507220077  0.65838899392556  0.7393680814472283  1.0000
  C   C9        1.0  0.6655506411201292  0.895312514666118  0.21179170319938234  1.0000
  C   C10       1.0  0.33444935879783205  0.3953125145609407  0.2882082967829197  1.0000
  C   C11       1.0  0.3344493594170022  0.10468748554423686  0.7882082970715012  1.0000
  C   C12       1.0  0.6655506406551973  0.6046874856494144  0.7117917027467212  1.0000
  C   C13       1.0  0.6110229943379087  0.9223472225765608  0.13072418140991943  1.0000
  C   C14       1.0  0.3889770055800525  0.42234722293954113  0.3692758185723826  1.0000
  C   C15       1.0  0.38897700620839565  0.07765277716563639  0.869275818213838  1.0000
  C   C16       1.0  0.611022993863804  0.5776527772708139  0.6307241816043843  1.0000
  C   C17       1.0  0.4915106444481575  0.8950071605143382  0.07750435512250783  1.0000
  C   C18       1.0  0.5084893554698038  0.3950071604091607  0.4224956448597942  1.0000
  C   C19       1.0  0.5084893560889738  0.10499283922785889  0.9224956451483757  1.0000
  C   C20       1.0  0.49151064397405275  0.6049928393330364  0.5775043553169726  1.0000
  C   C21       1.0  0.4278438904918917  0.8414109255124608  0.10537463980942223  1.0000
  C   C22       1.0  0.5721561094260694  0.34141092587544114  0.39462536017287975  1.0000
  C   C23       1.0  0.5721561100452396  0.15858907422973637  0.8946253604614612  1.0000
  C   C24       1.0  0.4278438900177869  0.6585890743349139  0.6053746400038871  1.0000
  C   C25       1.0  0.674600240576252  0.9784693321821054  0.1038767952099762  1.0000
  C   C26       1.0  0.3253997593417092  0.47846933207692793  0.3961232047723258  1.0000
  C   C27       1.0  0.32539975886760447  0.021530668028249576  0.8961232049667907  1.0000
  C   C28       1.0  0.6746002411954221  0.5215306676652691  0.6038767954985577  1.0000
  C   C29       1.0  0.9905718873822054  0.586383007833101  0.10391486581771996  1.0000
  C   C30       1.0  0.009428112535755713  0.08638300819608155  0.3960851341645821  1.0000
  C   C31       1.0  0.009428112061650944  0.41361699190909595  0.8960851343590469  1.0000
  C   C32       1.0  0.9905718880013755  0.9136169920142735  0.6039148661063014  1.0000
  C   C33       1.0  0.9687736717696421  0.6066410366881918  0.01632384539659469  1.0000
  C   C34       1.0  0.031226328148319046  0.10664103705117224  0.48367615458570734  1.0000
  C   C35       1.0  0.031226328767489167  0.39335896305400525  0.9836761548742887  1.0000
  C   C36       1.0  0.9687736713047104  0.8933589631591827  0.5163238449439336  1.0000
  C   C37       1.0  0.8643465873541715  0.5780690951567726  0.9567586192381394  1.0000
  C   C38       1.0  0.13565341271802805  0.07806909505159515  0.5432413805800829  1.0000
  C   C39       1.0  0.13565341209885795  0.42193090505358233  0.04324138029150145  1.0000
  C   C40       1.0  0.8643465878191033  0.9219309046906019  0.4567586196908006  1.0000
  C   C41       1.0  0.7804854939478635  0.5281845498260389  0.9833462614314854  1.0000
  C   C42       1.0  0.2195145061243361  0.02818454972086139  0.5166537383867369  1.0000
  C   C43       1.0  0.21951450549599297  0.4718154499161581  0.016653738745281484  1.0000
  C   C44       1.0  0.7804854944219681  0.9718154500213356  0.4833462612370205  1.0000
  C   C45       1.0  0.8023135455190756  0.5077935608353789  0.07071833589866143  1.0000
  C   C46       1.0  0.1976864543988856  0.007793560730201352  0.42928166408364066  1.0000
  C   C47       1.0  0.19768645501805573  0.49220643937497616  0.9292816643722221  1.0000
  C   C48       1.0  0.8023135450449709  0.9922064390119957  0.5707183360931263  1.0000
  C   C49       1.0  0.9068998002930629  0.5369011349884893  0.1304147722934146  1.0000
  C   C50       1.0  0.09310019962489838  0.036901134883311835  0.36958522768888746  1.0000
  C   C51       1.0  0.09310020024406848  0.4630988652218656  0.869585227977469  1.0000
  C   C52       1.0  0.9068997998189581  0.9630988653270431  0.6304147724878795  1.0000
  C   C53       1.0  0.6782084325794455  0.49681091562438545  0.9209591634043757  1.0000
  C   C54       1.0  0.321791567483581  0.996810915729563  0.5790408370609728  1.0000
  C   C55       1.0  0.32179156795768576  0.5031890841178116  0.07904083686650781  1.0000
  C   C56       1.0  0.6782084319602755  0.003189084480792033  0.42095916311579423  1.0000
  C   C57       1.0  0.300973186505454  0.6640963669785597  0.29115507865018647  1.0000
  C   C58       1.0  0.6990268134125072  0.16409636687338214  0.20884492133211555  1.0000
  C   C59       1.0  0.6990268129384024  0.33590363323179534  0.7088449215265803  1.0000
  C   C60       1.0  0.3009731871246241  0.835903632868815  0.7911550789387679  1.0000
  C   C61       1.0  0.24089591697218207  0.7078304783154657  0.35566726724999514  1.0000
  C   C62       1.0  0.7591040829457791  0.20783047867844615  0.14433273273230693  1.0000
  C   C63       1.0  0.7591040824716743  0.29216952142673136  0.6443327329267718  1.0000
  C   C64       1.0  0.24089591759135223  0.7921695215319089  0.8556672675385766  1.0000
  C   C65       1.0  0.023137717805650514  0.6483610735262423  0.37420431920842895  1.0000
  C   C66       1.0  0.9768622821123106  0.14836107388922276  0.1257956807738731  1.0000
  C   C67       1.0  0.9768622827314808  0.3516389262159548  0.6257956810624545  1.0000
  C   C68       1.0  0.02313771734071879  0.8516389263211323  0.8742043187557678  1.0000
  C   C69       1.0  0.03725974536533634  0.7586418874418156  0.40549468206124173  1.0000
  C   C70       1.0  0.9627402545526247  0.2586418873366381  0.09450531792106028  1.0000
  C   C71       1.0  0.9627402540785203  0.24135811276853933  0.5945053181155252  1.0000
  C   C72       1.0  0.0372597459936795  0.7413581128737168  0.9054946817026972  1.0000
  C   C73       1.0  0.8145879476450404  0.740151036412835  0.13910541989196043  1.0000
  C   C74       1.0  0.1854120522729208  0.24015103630765752  0.36089458009034164  1.0000
  C   C75       1.0  0.1854120528920909  0.25984896379752  0.8608945803789231  1.0000
  C   C76       1.0  0.8145879471709356  0.7598489634345396  0.6391054200864253  1.0000
  C   C77       1.0  0.7508783978543455  0.6861550989188852  0.16990900819011395  1.0000
  C   C78       1.0  0.2491216020636156  0.1861550992818656  0.3300909917921881  1.0000
  C   C79       1.0  0.24912160159868388  0.3138449008233119  0.8300909913395269  1.0000
  C   C80       1.0  0.7508783984735157  0.8138449009284894  0.6699090084786953  1.0000
  C   C81       1.0  0.6325539249050987  0.6579356470863611  0.12011310428829149  1.0000
  C   C82       1.0  0.3674460750128626  0.15793564744934158  0.3798868956940105  1.0000
  C   C83       1.0  0.3674460745387578  0.3420643526558359  0.8798868958884754  1.0000
  C   C84       1.0  0.6325539244401669  0.8420643527610134  0.6201131038356303  1.0000
  C   C85       1.0  0.5756222803447202  0.6837077723246189  0.03864225769494415  1.0000
  C   C86       1.0  0.42437771957324094  0.18370777221944143  0.4613577422873579  1.0000
  C   C87       1.0  0.42437772019241105  0.3162922278857361  0.9613577425759393  1.0000
  C   C88       1.0  0.5756222798706154  0.8162922275227557  0.538642257889409  1.0000
  C   C89       1.0  0.639240367263771  0.7379719100189354  0.007921726085566523  1.0000
  C   C90       1.0  0.36075963374746506  0.23797190991375786  0.4920782739908521  1.0000
  C   C91       1.0  0.36075963327336025  0.26202809019141965  0.992078274185317  1.0000
  C   C92       1.0  0.6392403667896662  0.7620280902965971  0.5079217262800314  1.0000
  C   C93       1.0  0.7579251739318635  0.7658528841200778  0.05751836647059342  1.0000
  C   C94       1.0  0.24207482598609772  0.26585288448305816  0.44248163351170866  1.0000
  C   C95       1.0  0.24207482660526783  0.2341471156221193  0.94248163380029  1.0000
  C   C96       1.0  0.7579251734669318  0.7341471157272969  0.5575183660179323  1.0000
  C   C97       1.0  0.4525425367964637  0.6561389795226754  0.9878474469513098  1.0000
  C   C98       1.0  0.5474574632757359  0.15613897941749796  0.5121525528669125  1.0000
  C   C99       1.0  0.5474574637498406  0.34386102068767954  0.012152552672447667  1.0000
  C   C100      1.0  0.45254253616812057  0.8438610207928571  0.4878474473098544  1.0000
  C   C101      1.0  0.1381656984222634  0.9016619817999604  0.19528987900425995  1.0000
  C   C102      1.0  0.8618343014956977  0.40166198169478284  0.30471012097804206  1.0000
  C   C103      1.0  0.8618343010307661  0.0983380179422367  0.8047101205253809  1.0000
  C   C104      1.0  0.13816569794815864  0.5983380180474142  0.6952898791987249  1.0000
  C   C105      1.0  0.07066568321769223  0.937094291706765  0.123781805103737  1.0000
  C   C106      1.0  0.929334316700269  0.43709429206974537  0.37621819487856506  1.0000
  C   C107      1.0  0.929334317319439  0.06290570803543215  0.8762181951671465  1.0000
  C   C108      1.0  0.07066568275276051  0.5629057081406097  0.6237818046510758  1.0000
  C   C109      1.0  0.130337510193449  0.9937234950252265  0.1034354054108582  1.0000
  C   C110      1.0  0.8696624897245122  0.493723495388207  0.3965645945714439  1.0000
  C   C111      1.0  0.8696624892595806  0.006276504716970479  0.8965645941187828  1.0000
  C   C112      1.0  0.1303375108126191  0.506276504822148  0.6034354056994397  1.0000
  C   C113      1.0  0.2583958318917895  0.016345152517351733  0.15397510265167783  1.0000
  C   C114      1.0  0.7416041680261717  0.5163451526225292  0.3460248973306242  1.0000
  C   C115      1.0  0.741604168654515  0.9836548472248453  0.8460248969720796  1.0000
  C   C116      1.0  0.25839583141768474  0.4836548475878258  0.6539751028461426  1.0000
  C   C117      1.0  0.3246775366850805  0.9817217706059553  0.2262121940671897  1.0000
  C   C118      1.0  0.6753224632328807  0.48172177050077786  0.27378780591511237  1.0000
  C   C119      1.0  0.6753224627587758  0.01827822913624164  0.7737878061095772  1.0000
  C   C120      1.0  0.32467753731342364  0.5182782292414191  0.7262121937086451  1.0000
  C   C121      1.0  0.2642065472728289  0.9250065530950689  0.2463549942873935  1.0000
  C   C122      1.0  0.7357934526451323  0.4250065529898913  0.25364500569490855  1.0000
  C   C123      1.0  0.7357934532643023  0.07499344711528617  0.7536450059834899  1.0000
  C   C124      1.0  0.2642065468078972  0.5749934472204636  0.7463549938347324  1.0000
  C   C125      1.0  0.31803503246031284  0.07456658958934644  0.13204231304196376  1.0000
  C   C126      1.0  0.6819649674576483  0.5745665892263659  0.36795768694033826  1.0000
  C   C127      1.0  0.6819649680768185  0.9254334106210086  0.8679576872289197  1.0000
  C   C128      1.0  0.3180350319953811  0.425433410515831  0.6320423125893025  1.0000
  N   N1        1.0  0.42198400250389095  0.760697482401306  0.22078930683368989  1.0000
  N   N2        1.0  0.5780159974140703  0.2606974822961285  0.27921069314861213  1.0000
  N   N3        1.0  0.5780159969491385  0.239302517809049  0.7792106926959509  1.0000
  N   N4        1.0  0.42198400202978614  0.7393025179142265  0.7207893070281548  1.0000
  N   N5        1.0  0.32364075346730914  0.7350082211206119  0.16675688662470486  1.0000
  N   N6        1.0  0.676359247543927  0.23500822101543437  0.3332431134517137  1.0000
  N   N7        1.0  0.6763592470698223  0.2649917786215852  0.8332431136461786  1.0000
  N   N8        1.0  0.3236407529932044  0.7649917787267627  0.6667568868191697  1.0000
  N   N9        1.0  0.26198083579067016  0.685157936993304  0.20047071294007568  1.0000
  N   N10       1.0  0.7380191641272911  0.18515793688812648  0.29952928704222637  1.0000
  N   N11       1.0  0.7380191636531863  0.314842063217051  0.7995292872366913  1.0000
  N   N12       1.0  0.26198083640984027  0.8148420633222284  0.7004707132286572  1.0000
  N   N13       1.0  0.15987943555107628  0.6593329155243276  0.14090847414249003  1.0000
  N   N14       1.0  0.8401205643668849  0.15933291541915004  0.359091525839812  1.0000
  N   N15       1.0  0.8401205638927801  0.3406670846860274  0.859091526034277  1.0000
  N   N16       1.0  0.15987943507697153  0.840667084323047  0.6409084743369549  1.0000
  N   N17       1.0  0.09462359141733746  0.6126929150062094  0.16886804928139884  1.0000
  N   N18       1.0  0.9053764085006238  0.11269291490103192  0.33113195070090323  1.0000
  N   N19       1.0  0.905376408026519  0.3873070847359876  0.8311319508953681  1.0000
  N   N20       1.0  0.0946235909432327  0.8873070848411652  0.6688680494758638  1.0000
  N   N21       1.0  0.7266516854461124  0.024904857949974067  0.08240783561154791  1.0000
  N   N22       1.0  0.2733483144718489  0.5249048580551515  0.41759216437075414  1.0000
  N   N23       1.0  0.273348315091019  0.975095141792223  0.9175921646593357  1.0000
  N   N24       1.0  0.7266516849811806  0.4750951416870455  0.5824078351588866  1.0000
  N   N25       1.0  0.5969068323602525  0.4703125313367719  0.8689151067857496  1.0000
  N   N26       1.0  0.403093167702774  0.9703125309737916  0.6310848936795987  1.0000
  N   N27       1.0  0.40309316708360393  0.5296874688735831  0.1310848933910174  1.0000
  N   N28       1.0  0.5969068328343573  0.029687468768405542  0.3689151065912847  1.0000
  N   N29       1.0  0.08072031281411578  0.7086946145633641  0.3492215001703331  1.0000
  N   N30       1.0  0.9192796871038456  0.20869461492634464  0.15077849981196892  1.0000
  N   N31       1.0  0.9192796877230155  0.29130538517883287  0.6507785001005504  1.0000
  N   N32       1.0  0.08072031234918406  0.7913053852840103  0.8492214997176719  1.0000
  N   N33       1.0  0.089046788232628  0.8430204619157541  0.22071783313854482  1.0000
  N   N34       1.0  0.9109532116853332  0.3430204622787346  0.27928216684375723  1.0000
  N   N35       1.0  0.9109532123045033  0.1569795378264429  0.7792821671323388  1.0000
  N   N36       1.0  0.08904678776769628  0.6569795379316203  0.7207178326858835  1.0000
  N   N37       1.0  0.9802652024524563  0.8224218542363918  0.16832714112652808  1.0000
  N   N38       1.0  0.019734797465504942  0.32242185459937217  0.3316728588557739  1.0000
  N   N39       1.0  0.019734796991400173  0.1775781455058053  0.8316728590502388  1.0000
  N   N40       1.0  0.9802652030807995  0.6775781456109828  0.6683271407679835  1.0000
  N   N41       1.0  0.9319137604526218  0.767435008938946  0.1915124052135146  1.0000
  N   N42       1.0  0.06808623946533936  0.2674350088337685  0.3084875947687874  1.0000
  N   N43       1.0  0.06808624009368251  0.23256499080325108  0.8084875944102428  1.0000
  N   N44       1.0  0.9319137599785171  0.7325649909084286  0.6915124054079795  1.0000
  N   N45       1.0  0.363683707075345  0.12320280297596459  0.11360731994478734  1.0000
  N   N46       1.0  0.6363162928426163  0.6232028030811422  0.3863926800375147  1.0000
  N   N47       1.0  0.6363162934617863  0.8767971972343904  0.8863926803260962  1.0000
  N   N48       1.0  0.36368370661041327  0.3767971971292129  0.6136073194921261  1.0000
  N   N49       1.0  0.3506245092043107  0.6343860403981313  0.9452198563617125  1.0000
  N   N50       1.0  0.6493754908587158  0.13438604029295373  0.5547801441036359  1.0000
  N   N51       1.0  0.6493754902395457  0.3656139593440658  0.054780143815054354  1.0000
  N   N52       1.0  0.35062450967841546  0.8656139594492432  0.44521985616724763  1.0000
