data_image0
_chemical_formula_structural       H68C60N8O32F12S8
_chemical_formula_sum              "H68 C60 N8 O32 F12 S8"
_cell_length_a       10.559104176428532
_cell_length_b       10.652266068773597
_cell_length_c       16.76308244891774
_cell_angle_alpha    90.0
_cell_angle_beta     90.0
_cell_angle_gamma    90.0

_space_group_name_H-M_alt    "P 1"
_space_group_IT_number       1

loop_
  _space_group_symop_operation_xyz
  'x, y, z'

loop_
  _atom_site_type_symbol
  _atom_site_label
  _atom_site_symmetry_multiplicity
  _atom_site_fract_x
  _atom_site_fract_y
  _atom_site_fract_z
  _atom_site_occupancy
  H   H1        1.0  0.8008914628267602  0.8160265265511508  0.2658252719080131  1.0000
  H   H2        1.0  0.6991085376805937  0.18397347356397994  0.7658252716420197  1.0000
  H   H3        1.0  0.3008914626576423  0.6839734731521616  0.734174728156549  1.0000
  H   H4        1.0  0.1991085375114757  0.3160265260242017  0.23417472842254247  1.0000
  H   H5        1.0  0.11058117909344627  0.9355537118260664  0.20219047483231956  1.0000
  H   H6        1.0  0.3894188210756717  0.06444628828906422  0.7021904751628751  1.0000
  H   H7        1.0  0.6105811783155142  0.5644462888160132  0.7978095252322426  1.0000
  H   H8        1.0  0.8894188212447897  0.43555371129911746  0.297809524901687  1.0000
  H   H9        1.0  0.6787611742669798  0.8469014660125403  0.49819440937840026  1.0000
  H   H10       1.0  0.821238826240374  0.1530985341025903  0.9981944091124068  1.0000
  H   H11       1.0  0.17876117409786177  0.6530985346295394  0.5018055906861619  1.0000
  H   H12       1.0  0.3212388260712562  0.34690146548559136  0.0018055909521553489  1.0000
  H   H13       1.0  0.8922609534464013  0.7114646997239849  0.48419463691917985  1.0000
  H   H14       1.0  0.6077390461139025  0.28853530039114583  0.9841946372497354  1.0000
  H   H15       1.0  0.39226095327728333  0.7885353009180949  0.5158053631453824  1.0000
  H   H16       1.0  0.1077390468918346  0.21146469919703584  0.015805362814826786  1.0000
  H   H17       1.0  0.16272217238235043  0.8771741495822184  0.3382850795657879  1.0000
  H   H18       1.0  0.33727782778676757  0.12282585053291237  0.8382850792997945  1.0000
  H   H19       1.0  0.6627221725514684  0.6228258510598614  0.6617149204987742  1.0000
  H   H20       1.0  0.8372778279558856  0.3771741490552693  0.16171492076476768  1.0000
  H   H21       1.0  0.828074023506551  0.9244333718688017  0.4980136102915237  1.0000
  H   H22       1.0  0.6719259760537529  0.0755666282463291  0.9980136106220793  1.0000
  H   H23       1.0  0.32807402333743296  0.5755666278345107  0.5019863897730383  1.0000
  H   H24       1.0  0.171925976831685  0.4244333713418526  0.001986389442482865  1.0000
  H   H25       1.0  0.5142256776025615  0.518799265275605  0.4148937936202195  1.0000
  H   H26       1.0  0.9857743219577422  0.4812007348395257  0.9148937939507751  1.0000
  H   H27       1.0  0.014225677433443653  0.9812007344277073  0.5851062064443426  1.0000
  H   H28       1.0  0.48577432178862423  0.018799265687423395  0.0851062061137871  1.0000
  H   H29       1.0  0.6417956444759837  0.4204746671818414  0.4467473773287739  1.0000
  H   H30       1.0  0.8582043560313702  0.5795253329332893  0.9467473776593294  1.0000
  H   H31       1.0  0.1417956443068657  0.07952533240634028  0.5532526221392393  1.0000
  H   H32       1.0  0.3582043558622523  0.9204746677087904  0.05325262240523271  1.0000
  H   H33       1.0  0.8947782569558541  0.012247209106279864  0.22779840710301685  1.0000
  H   H34       1.0  0.6052217426044498  0.9877527910088509  0.7277984074335724  1.0000
  H   H35       1.0  0.3947782567867361  0.48775279142066913  0.7722015923649963  1.0000
  H   H36       1.0  0.10522174338238191  0.5122472086944615  0.2722015926309897  1.0000
  H   H37       1.0  0.024866929581597464  0.8001015028139685  0.1252247631899899  1.0000
  H   H38       1.0  0.4751330696404705  0.19989849730116216  0.6252247629239965  1.0000
  H   H39       1.0  0.5248669297507155  0.6998984978281112  0.8747752368745723  1.0000
  H   H40       1.0  0.9751330698095885  0.30010150228701954  0.37477523714056565  1.0000
  H   H41       1.0  0.9976621088289251  0.12669528260810514  0.3165169709191852  1.0000
  H   H42       1.0  0.5023378907313787  0.8733047175070255  0.8165169712497408  1.0000
  H   H43       1.0  0.49766210865980726  0.3733047169800765  0.683483029145377  1.0000
  H   H44       1.0  0.0023378905622607185  0.6266952831350542  0.18348302881482137  1.0000
  H   H45       1.0  0.5370780357162985  0.48648719967587417  0.5203355759049636  1.0000
  H   H46       1.0  0.9629219638440054  0.5135128004392565  0.020335576170957055  1.0000
  H   H47       1.0  0.03707803554718058  0.013512799912307498  0.4796644241595986  1.0000
  H   H48       1.0  0.4629219636748873  0.9864872002028232  0.9796644238936052  1.0000
  H   H49       1.0  0.49163429143814513  0.011912693428864921  0.5209829550509572  1.0000
  H   H50       1.0  0.008365708730972844  0.9880873066862658  0.02098295472040162  1.0000
  H   H51       1.0  0.9916342916072631  0.4880873070980841  0.479017045013605  1.0000
  H   H52       1.0  0.5083657079530408  0.5119126930170466  0.9790170453441606  1.0000
  H   H53       1.0  0.38691663153775807  0.9848453936719793  0.38826605666550335  1.0000
  H   H54       1.0  0.11308336863135994  0.015154606443151456  0.8882660569960589  1.0000
  H   H55       1.0  0.886916630759826  0.5151546060313331  0.6117339433990588  1.0000
  H   H56       1.0  0.6130833688004779  0.4848453931450302  0.1117339430685032  1.0000
  H   H57       1.0  0.238834409421746  0.1538091368936893  0.3396233632656004  1.0000
  H   H58       1.0  0.26116558980032195  0.8461908632214414  0.839623363596156  1.0000
  H   H59       1.0  0.738834409590864  0.34619086269449234  0.6603766367989616  1.0000
  H   H60       1.0  0.7611655899694398  0.6538091374206384  0.16037663646840616  1.0000
  H   H61       1.0  0.3217992296718959  0.35762302738262247  0.5564216669829833  1.0000
  H   H62       1.0  0.17820076955017206  0.6423769727325083  0.056421667248976806  1.0000
  H   H63       1.0  0.821799229841014  0.14237697220555923  0.44357833308157874  1.0000
  H   H64       1.0  0.67820076971929  0.8576230279095715  0.9435783328155853  1.0000
  H   H65       1.0  0.20835487587206789  0.34556741131268087  0.4242325348974902  1.0000
  H   H66       1.0  0.2916451233500001  0.6544325888024498  0.9242325346314968  1.0000
  H   H67       1.0  0.7083548760411859  0.15443258827550077  0.575767465167072  1.0000
  H   H68       1.0  0.791645123519118  0.84556741183963  0.0757674654330654  1.0000
  C   C1        1.0  0.43719327159450583  0.770902623627898  0.2312952842542585  1.0000
  C   C2        1.0  0.06280672857461211  0.2290973764872328  0.7312952845848141  1.0000
  C   C3        1.0  0.9371932717636238  0.7290973770141819  0.7687047152137546  1.0000
  C   C4        1.0  0.5628067277966801  0.27090262310094887  0.26870471547974806  1.0000
  C   C5        1.0  0.11188581344213962  0.8077571743371442  0.3017769658662391  1.0000
  C   C6        1.0  0.3881141857799283  0.19224282577798651  0.8017769661967947  1.0000
  C   C7        1.0  0.6118858136112576  0.6922428253661682  0.6982230341983231  1.0000
  C   C8        1.0  0.8881141859490463  0.30775717381019513  0.19822303386776752  1.0000
  C   C9        1.0  0.043390593779989405  0.8749474402748408  0.2344858692891399  1.0000
  C   C10       1.0  0.4566094063891286  0.12505255890152253  0.7344858696196955  1.0000
  C   C11       1.0  0.5433905939491074  0.6250525594284716  0.7655141307754222  1.0000
  C   C12       1.0  0.9566094056111965  0.37494744068665914  0.26551413044486666  1.0000
  C   C13       1.0  0.942468923852023  0.95866817858932  0.27487295693027414  1.0000
  C   C14       1.0  0.5575310766553309  0.04133182152581075  0.7748729572608297  1.0000
  C   C15       1.0  0.4424689236829051  0.5413318211139924  0.7251270431342881  1.0000
  C   C16       1.0  0.057531076486212904  0.4586681790011383  0.22512704280373244  1.0000
  C   C17       1.0  0.8464641489144887  0.8704789826065205  0.3134870914113576  1.0000
  C   C18       1.0  0.6535358506458152  0.12952101750861025  0.8134870917419132  1.0000
  C   C19       1.0  0.34646414969242073  0.629521017096792  0.6865129086532045  1.0000
  C   C20       1.0  0.1535358504766972  0.3704789820795714  0.18651290832264897  1.0000
  C   C21       1.0  0.02573475888291793  0.7349822600611575  0.35860869671902784  1.0000
  C   C22       1.0  0.47426524033914996  0.26501774005397316  0.8586086970495834  1.0000
  C   C23       1.0  0.5257347590520359  0.7650177396421548  0.6413913033455343  1.0000
  C   C24       1.0  0.974265240508268  0.23498226047297585  0.14139130301497874  1.0000
  C   C25       1.0  0.763397594655274  0.8661710776308345  0.46265101323895885  1.0000
  C   C26       1.0  0.7366024058520798  0.13382892248429618  0.9626510129729653  1.0000
  C   C27       1.0  0.26339759448615613  0.6338289230112453  0.5373489868256033  1.0000
  C   C28       1.0  0.2366024056829618  0.3661710771038855  0.03734898649504771  1.0000
  C   C29       1.0  0.8305983313980765  0.7463230451316818  0.4362909197808176  1.0000
  C   C30       1.0  0.6694016691092773  0.2536769549834489  0.9362909195148241  1.0000
  C   C31       1.0  0.33059833122895865  0.7536769555103979  0.5637090802837446  1.0000
  C   C32       1.0  0.16940166894015934  0.24632304460473275  0.06370908054973803  1.0000
  C   C33       1.0  0.7417641950615916  0.6386549327699292  0.41331422792395284  1.0000
  C   C34       1.0  0.7582358054457623  0.36134506734520144  0.9133142276579594  1.0000
  C   C35       1.0  0.24176419489247364  0.8613450669333831  0.5866857721406094  1.0000
  C   C36       1.0  0.2582358052766443  0.13865493318174757  0.08668577240660275  1.0000
  C   C37       1.0  0.583070775430347  0.5015608956353375  0.46261178059770663  1.0000
  C   C38       1.0  0.9169292241299568  0.49843910447979334  0.9626117809282623  1.0000
  C   C39       1.0  0.08307077620827912  0.9984391050067423  0.5373882194668554  1.0000
  C   C40       1.0  0.41692922396083887  0.001560895108388359  0.03738821913629995  1.0000
  C   C41       1.0  0.4290194181541098  0.0839090043591923  0.496583033303486  1.0000
  C   C42       1.0  0.0709805820150081  0.9160909957559384  0.9965830336340415  1.0000
  C   C43       1.0  0.9290194183232278  0.41609099522898935  0.5034169667610762  1.0000
  C   C44       1.0  0.5709805821841261  0.5839090048861414  0.0034169664305205424  1.0000
  C   C45       1.0  0.369205100628016  0.06906851042303207  0.42319076706909614  1.0000
  C   C46       1.0  0.13079489954110196  0.9309314896920987  0.9231907668031026  1.0000
  C   C47       1.0  0.869205099850084  0.430931490103917  0.576809232995466  1.0000
  C   C48       1.0  0.63079489971022  0.5690685100112137  0.07680923326145947  1.0000
  C   C49       1.0  0.2879271659036063  0.16329646844807616  0.39640820119148296  1.0000
  C   C50       1.0  0.21207283426551166  0.8367035316670546  0.8964082009254896  1.0000
  C   C51       1.0  0.7879271660727242  0.3367035311401055  0.6035917988730791  1.0000
  C   C52       1.0  0.7120728334875795  0.6632964689750253  0.10359179854252362  1.0000
  C   C53       1.0  0.2703690315294924  0.2698335360234693  0.4435894539479569  1.0000
  C   C54       1.0  0.22963096863962562  0.7301664640916614  0.9435894542785124  1.0000
  C   C55       1.0  0.7703690316986104  0.2301664635647124  0.5564105461166052  1.0000
  C   C56       1.0  0.7296309688087436  0.7698335365504183  0.05641054578604968  1.0000
  C   C57       1.0  0.3337142849547915  0.2773790047041304  0.516369187849389  1.0000
  C   C58       1.0  0.16628571521432645  0.7226209954110003  0.01636918751883343  1.0000
  C   C59       1.0  0.8337142851239094  0.2226209958228187  0.4836308122151731  1.0000
  C   C60       1.0  0.6662857153834444  0.777379004292312  0.9836308125457288  1.0000
  N   N1        1.0  0.9088703359346912  0.7843121121890906  0.3694332405076146  1.0000
  N   N2        1.0  0.5911296636256127  0.21568788792604018  0.869433240241621  1.0000
  N   N3        1.0  0.40887033671262324  0.7156878884529893  0.6305667595569476  1.0000
  N   N4        1.0  0.09112966345649473  0.28431211166214154  0.130566759226392  1.0000
  N   N5        1.0  0.4112110551662942  0.18593021496204756  0.5424167194612252  1.0000
  N   N6        1.0  0.08878894405577377  0.8140697842143158  0.04241671972721855  1.0000
  N   N7        1.0  0.911211055335412  0.31406978462613416  0.45758328060333703  1.0000
  N   N8        1.0  0.5887889442248917  0.6859302154889966  0.9575832803373435  1.0000
  O   O1        1.0  0.35146205094599564  0.7608253988095397  0.37928154140949666  1.0000
  O   O2        1.0  0.14853794922312233  0.23917460130559098  0.8792815417400522  1.0000
  O   O3        1.0  0.8514620501680636  0.73917460183254  0.6207184586550656  1.0000
  O   O4        1.0  0.6485379493922403  0.26082539828259066  0.12071845832450992  1.0000
  O   O5        1.0  0.35622205701849946  0.5590617199712544  0.30195073044735815  1.0000
  O   O6        1.0  0.1437779431506185  0.44093827920510886  0.8019507301813646  1.0000
  O   O7        1.0  0.8562220571876173  0.9409382797320579  0.698049269617204  1.0000
  O   O8        1.0  0.6437779423726865  0.059061720383072766  0.19804926988319746  1.0000
  O   O9        1.0  0.20158093001407815  0.7200801980045837  0.2661501805288826  1.0000
  O   O10       1.0  0.2984190701550398  0.27991980211054707  0.7661501808594382  1.0000
  O   O11       1.0  0.7015809301831961  0.7799198016987287  0.7338498195356795  1.0000
  O   O12       1.0  0.7984190703241577  0.22008019841640203  0.23384981920512396  1.0000
  O   O13       1.0  0.9857534385573784  0.7874675337475637  0.18204381081458076  1.0000
  O   O14       1.0  0.5142465610029254  0.21253246636756704  0.6820438105485873  1.0000
  O   O15       1.0  0.48575343838826046  0.7125324668945161  0.8179561892499814  1.0000
  O   O16       1.0  0.014246560833807508  0.28746753322061463  0.3179561895159748  1.0000
  O   O17       1.0  0.0016488453669077068  0.03662409927439185  0.33226742438170137  1.0000
  O   O18       1.0  0.4983511548022102  0.9633759008407388  0.8322674241157079  1.0000
  O   O19       1.0  0.5016488455360256  0.4633759003137898  0.6677325756828608  1.0000
  O   O20       1.0  0.9983511540242782  0.5366240988625735  0.1677325759488542  1.0000
  O   O21       1.0  0.06655449442091756  0.6431104673663782  0.3962075388126961  1.0000
  O   O22       1.0  0.4334455057482004  0.35688953274875257  0.8962075385467027  1.0000
  O   O23       1.0  0.5665544945900356  0.8568895323369341  0.603792461251866  1.0000
  O   O24       1.0  0.9334455059173185  0.14311046683942913  0.10379246151785947  1.0000
  O   O25       1.0  0.7466710781772694  0.5817309321783996  0.3501918014117385  1.0000
  O   O26       1.0  0.7533289213830344  0.4182690679367312  0.8501918017422941  1.0000
  O   O27       1.0  0.2466710780081514  0.9182690675249129  0.6498081986528236  1.0000
  O   O28       1.0  0.25332892216096653  0.08173093259021788  0.14980819832226808  1.0000
  O   O29       1.0  0.6623240450276028  0.6116681697521804  0.4737408131350395  1.0000
  O   O30       1.0  0.837675955479751  0.3883318303629503  0.973740812869046  1.0000
  O   O31       1.0  0.16232404485848487  0.8883318299511319  0.5262591869295227  1.0000
  O   O32       1.0  0.3376759553106331  0.11166817016399876  0.026259187195516016  1.0000
  F   F1        1.0  0.40916247986685844  0.7321021583248768  0.1568264481196134  1.0000
  F   F2        1.0  0.09083752030225951  0.267897841790254  0.656826448450169  1.0000
  F   F3        1.0  0.9091624800359766  0.767897842317203  0.8431735519449488  1.0000
  F   F4        1.0  0.5908375204713775  0.23210215779792767  0.34317355161439317  1.0000
  F   F5        1.0  0.41893017969031876  0.8956254883613133  0.23635306704918077  1.0000
  F   F6        1.0  0.08106982047879921  0.1043745117538174  0.7363530667831873  1.0000
  F   F7        1.0  0.9189301798594367  0.6043745122807664  0.7636469330153814  1.0000
  F   F8        1.0  0.5810698206479172  0.3956254878343643  0.2636469332813748  1.0000
  F   F9        1.0  0.5586683360098513  0.7433363698276108  0.24819374674546268  1.0000
  F   F10       1.0  0.9413316635504525  0.25666363028751993  0.7481937464794693  1.0000
  F   F11       1.0  0.05866833584073342  0.7566636298757016  0.7518062533190994  1.0000
  F   F12       1.0  0.4413316643283845  0.2433363702394291  0.25180625298854387  1.0000
  S   S1        1.0  0.33391692998643885  0.691353238123527  0.30670922998007083  1.0000
  S   S2        1.0  0.16608307018267912  0.3086467619916036  0.8067092303106264  1.0000
  S   S3        1.0  0.8339169301555569  0.8086467615797852  0.6932907700844914  1.0000
  S   S4        1.0  0.666083070351797  0.1913532385353454  0.19329076975393572  1.0000
  S   S5        1.0  0.7187620912901189  0.9450243136068212  0.3708979001294245  1.0000
  S   S6        1.0  0.7812379092172349  0.05497568650830953  0.8708978998634311  1.0000
  S   S7        1.0  0.21876209112100092  0.5549756860964912  0.6291020999351378  1.0000
  S   S8        1.0  0.281237909048117  0.4450243140186395  0.1291021002011311  1.0000
