data_image0
_chemical_formula_structural       H48C32N2O16Cl2
_chemical_formula_sum              "H48 C32 N2 O16 Cl2"
_cell_length_a       6.597551115208748
_cell_length_b       7.915178117763952
_cell_length_c       17.689792651505677
_cell_angle_alpha    77.81164205580627
_cell_angle_beta     82.9794381448708
_cell_angle_gamma    79.99357556299609

_space_group_name_H-M_alt    "P 1"
_space_group_IT_number       1

loop_
  _space_group_symop_operation_xyz
  'x, y, z'

loop_
  _atom_site_type_symbol
  _atom_site_label
  _atom_site_symmetry_multiplicity
  _atom_site_fract_x
  _atom_site_fract_y
  _atom_site_fract_z
  _atom_site_occupancy
  H   H1        1.0  0.40916035501179376  0.8670837775146869  0.41397876741830764  1.0000
  H   H2        1.0  0.5908396438465044  0.13291622247882925  0.5860212325539222  1.0000
  H   H3        1.0  0.2813627288726175  0.023552414528937894  0.34156666626126947  1.0000
  H   H4        1.0  0.7186372715016119  0.9764475854649217  0.6584333337100738  1.0000
  H   H5        1.0  0.2163155450674903  0.7837974424323623  0.2787457333923972  1.0000
  H   H6        1.0  0.783684455306739  0.21620255756149742  0.7212542665789462  1.0000
  H   H7        1.0  0.15981994990145623  0.7029413038948321  0.379502982760772  1.0000
  H   H8        1.0  0.8401800504727732  0.29705869609902746  0.6204970172105713  1.0000
  H   H9        1.0  0.49825523459371596  0.5289028435057738  0.3924229768369805  1.0000
  H   H10       1.0  0.5017447642645825  0.47109715648774253  0.6075770231352494  1.0000
  H   H11       1.0  0.461365471394827  0.5058415786003969  0.2982180358720256  1.0000
  H   H12       1.0  0.5386345289794023  0.4941584213934627  0.7017819640993177  1.0000
  H   H13       1.0  0.7823891000392877  0.6600894037225459  0.339869925422191  1.0000
  H   H14       1.0  0.21761089881901063  0.3399105962709702  0.6601300745500389  1.0000
  H   H15       1.0  0.42069251136344027  0.7055482423642613  0.190536089664782  1.0000
  H   H16       1.0  0.5793074888758284  0.29445175737531315  0.8094639108871918  1.0000
  H   H17       1.0  0.44350116598613465  0.5309467396538387  0.10350151727842201  1.0000
  H   H18       1.0  0.5564988343880947  0.46905326034002104  0.8964984826929213  1.0000
  H   H19       1.0  0.6366432858080348  0.4127158860519475  0.16286429280049192  1.0000
  H   H20       1.0  0.36335671305026374  0.5872841139415687  0.837135707171738  1.0000
  H   H21       1.0  0.9113779312308342  0.5140127376490077  0.06399246199358873  1.0000
  H   H22       1.0  0.0886220691433953  0.4859872623448518  0.9360075379777546  1.0000
  H   H23       1.0  0.7345678260381133  0.4373570917060295  0.017465705166891218  1.0000
  H   H24       1.0  0.26543217420115545  0.5626429080335451  0.9825342953850825  1.0000
  H   H25       1.0  0.8230094514673759  0.721856220917846  0.9410301809186212  1.0000
  H   H26       1.0  0.17699054890685356  0.27814377907601373  0.05896981905272213  1.0000
  H   H27       1.0  0.5594692509951238  0.7491743061163285  0.9764508703579583  1.0000
  H   H28       1.0  0.44053074937910564  0.25082569387753123  0.02354912961338492  1.0000
  H   H29       1.0  0.9190861513768401  0.8272407656533435  0.05193735780554607  1.0000
  H   H30       1.0  0.08091384899738925  0.1727592343405161  0.9480626421657974  1.0000
  H   H31       1.0  0.7498501165363157  0.9903155429727148  0.9971033250973891  1.0000
  H   H32       1.0  0.25014988383791376  0.009684457021144713  0.00289667487395429  1.0000
  H   H33       1.0  0.4668565529725439  0.9623578416621607  0.0941804744419086  1.0000
  H   H34       1.0  0.5331434458857542  0.03764215833135557  0.9058195255303213  1.0000
  H   H35       1.0  0.17873281467181457  0.316305853417295  0.1825771820989553  1.0000
  H   H36       1.0  0.8212671841864838  0.6836941465762212  0.8174228178732746  1.0000
  H   H37       1.0  0.24593910383464157  0.34123340282702613  0.27451356501774216  1.0000
  H   H38       1.0  0.7540608950236568  0.65876659716649  0.7254864349544878  1.0000
  H   H39       1.0  0.07522029214330116  0.18837732490919692  0.27168746911097347  1.0000
  H   H40       1.0  0.9247797082309284  0.8116226750846626  0.7283125308603698  1.0000
  H   H41       1.0  0.2503474309744978  0.4399214199745644  0.5080439735278307  1.0000
  H   H42       1.0  0.7496525678838005  0.5600785800189518  0.4919560264443993  1.0000
  H   H43       1.0  0.3986529311369009  0.2769128014922515  0.476317853888494  1.0000
  H   H44       1.0  0.6013470692373286  0.7230871985016082  0.5236821460828492  1.0000
  H   H45       1.0  0.13192613228307284  0.25409478737505264  0.4730505454003764  1.0000
  H   H46       1.0  0.8680738680911566  0.7459052126188069  0.5269494545709669  1.0000
  H   H47       1.0  0.6893761105914182  0.9594769039252903  0.33013989665423904  1.0000
  H   H48       1.0  0.3106238882668801  0.0405230960682258  0.669860103317991  1.0000
  C   C1        1.0  0.37138883947130374  0.8932215004847717  0.35351942877980885  1.0000
  C   C2        1.0  0.6286111593869946  0.10677849950874473  0.6464805711924211  1.0000
  C   C3        1.0  0.28213901773470945  0.7434011517921467  0.3351174113211801  1.0000
  C   C4        1.0  0.71786098263952  0.256598848201713  0.6648825886501633  1.0000
  C   C5        1.0  0.4725016964356464  0.6013930111500659  0.33362052073630416  1.0000
  C   C6        1.0  0.5274983039385829  0.3986069888437937  0.6663794792350392  1.0000
  C   C7        1.0  0.6552927383601653  0.7012422521930889  0.30233341042102996  1.0000
  C   C8        1.0  0.3447072618791033  0.29875774754648554  0.6976665901309439  1.0000
  C   C9        1.0  0.7339839554844725  0.7105086048587013  0.21622306871348687  1.0000
  C   C10       1.0  0.266016044889757  0.28949139513515837  0.7837769312578565  1.0000
  C   C11       1.0  0.5741870272043692  0.6917325060532482  0.1592293339796965  1.0000
  C   C12       1.0  0.42581297303489923  0.30826749368632633  0.8407706665722774  1.0000
  C   C13       1.0  0.5977224169164606  0.5340547673934795  0.12034133310228316  1.0000
  C   C14       1.0  0.4022775834577688  0.4659452326003802  0.8796586668690601  1.0000
  C   C15       1.0  0.7513565485935256  0.5409729765027446  0.04797154003482934  1.0000
  C   C16       1.0  0.2486434517807038  0.459027023491115  0.952028459936514  1.0000
  C   C17       1.0  0.7183128453651194  0.7205634477014402  0.9944151076465247  1.0000
  C   C18       1.0  0.281687153493179  0.2794365522920758  0.005584892325705169  1.0000
  C   C19       1.0  0.7594628625443443  0.8611174140961001  0.03569160580061101  1.0000
  C   C20       1.0  0.24053713769492432  0.13888258564347433  0.9643083947513629  1.0000
  C   C21       1.0  0.6093831388659883  0.8724500444245464  0.10809486158361095  1.0000
  C   C22       1.0  0.39061686150824115  0.12754995556931323  0.8919051383877323  1.0000
  C   C23       1.0  0.7024592560408276  0.9072368756547692  0.17806166909821294  1.0000
  C   C24       1.0  0.29754074433340155  0.09276312433909052  0.8219383308731304  1.0000
  C   C25       1.0  0.9425727423512542  0.6002878124198046  0.2052298350090444  1.0000
  C   C26       1.0  0.05742725802297521  0.3997121875740551  0.7947701649622989  1.0000
  C   C27       1.0  0.12459925598654369  0.3131694087132187  0.24386152744491862  1.0000
  C   C28       1.0  0.8754007443876858  0.6868305912806408  0.7561384725264247  1.0000
  C   C29       1.0  0.8516141176457479  0.23852210219563347  0.44403604075032893  1.0000
  C   C30       1.0  0.14838588272848133  0.761477897798226  0.5559639592210145  1.0000
  C   C31       1.0  0.7283494758778901  0.14158837478446373  0.4019630960763101  1.0000
  C   C32       1.0  0.27165052449633925  0.858411625209396  0.5980369038950332  1.0000
  N   N1        1.0  0.5752340670460884  0.8902293270265316  0.30737991807961584  1.0000
  N   N2        1.0  0.4247659333281412  0.10977067296732793  0.6926200818917275  1.0000
  O   O1        1.0  0.5418624132438301  0.9817046449034138  0.22725711087774492  1.0000
  O   O2        1.0  0.4581375856144682  0.01829535509010251  0.7727428890944851  1.0000
  O   O3        1.0  0.9400208322603325  0.4407178185887924  0.25063624436710136  1.0000
  O   O4        1.0  0.059979168113896884  0.5592821814050674  0.749363755604242  1.0000
  O   O5        1.0  0.090407671283799  0.642981172147415  0.16100669084147445  1.0000
  O   O6        1.0  0.9095923290904305  0.3570188278464444  0.8389933091298689  1.0000
  O   O7        1.0  0.04982903546438012  0.18806317691053243  0.44001657110665787  1.0000
  O   O8        1.0  0.9501709649098494  0.8119368230833273  0.5599834288646854  1.0000
  O   O9        1.0  0.7554336297073238  0.3544492232282889  0.47817103611731976  1.0000
  O   O10       1.0  0.24456637066690565  0.6455507767655707  0.5218289638540236  1.0000
  O   O11       1.0  0.5351186956069266  0.1718645822652482  0.4130410088720025  1.0000
  O   O12       1.0  0.4648813047673027  0.8281354177286112  0.5869589910993409  1.0000
  O   O13       1.0  0.8308609908898028  0.04008640872948956  0.3588266039726294  1.0000
  O   O14       1.0  0.16913900948442662  0.95991359126437  0.6411733959987139  1.0000
  O   O15       1.0  0.26899060783684564  0.3120542816835308  0.5099475265375012  1.0000
  O   O16       1.0  0.7310093910214527  0.6879457183099855  0.4900524734347287  1.0000
  Cl  Cl1       1.0  0.913304426803037  0.031115710372874562  0.16072056277654675  1.0000
  Cl  Cl2       1.0  0.08669557357119256  0.9688842896209849  0.8392794371947966  1.0000
