data_image0
_chemical_formula_structural       H100C80N12O16
_chemical_formula_sum              "H100 C80 N12 O16"
_cell_length_a       14.463164243167531
_cell_length_b       21.719107756730214
_cell_length_c       5.759795354618797
_cell_angle_alpha    90.0
_cell_angle_beta     90.0
_cell_angle_gamma    90.0

_space_group_name_H-M_alt    "P 1"
_space_group_IT_number       1

loop_
  _space_group_symop_operation_xyz
  'x, y, z'

loop_
  _atom_site_type_symbol
  _atom_site_label
  _atom_site_symmetry_multiplicity
  _atom_site_fract_x
  _atom_site_fract_y
  _atom_site_fract_z
  _atom_site_occupancy
  H   H1        1.0  0.06762721860550405  0.004926025562299942  0.9462009575791074  1.0000
  H   H2        1.0  0.43237278128499257  0.9950739745882489  0.44620095884814526  1.0000
  H   H3        1.0  0.5676272184960007  0.49507397451297447  0.053799041618989664  1.0000
  H   H4        1.0  0.9323727811754892  0.5049260256375743  0.5537990420861246  1.0000
  H   H5        1.0  0.3825238265280423  0.19627241172828772  0.4566587123431019  1.0000
  H   H6        1.0  0.11747617336245438  0.803727587961837  0.9566587110740641  1.0000
  H   H7        1.0  0.882523826418539  0.30372758788656257  0.5433412885911679  1.0000
  H   H8        1.0  0.6174761739443627  0.6962724118035621  0.043341288124032984  1.0000
  H   H9        1.0  0.23422988448743978  0.18331015456959934  0.48158160302964104  1.0000
  H   H10       1.0  0.2657701154030569  0.8166898455809495  0.981581603496776  1.0000
  H   H11       1.0  0.7342298843779365  0.316689845505675  0.5184183961684561  1.0000
  H   H12       1.0  0.7657701152935535  0.6833101546448737  0.01841839743749388  1.0000
  H   H13       1.0  0.13869255968296237  0.21452436224302102  0.03231601793816145  1.0000
  H   H14       1.0  0.36130744020753425  0.7854756379075277  0.5323160184052964  1.0000
  H   H15       1.0  0.638692559573459  0.2854756378322534  0.9676839829961084  1.0000
  H   H16       1.0  0.8613074400980308  0.7145243623182954  0.46768398252897353  1.0000
  H   H17       1.0  0.12617143381069343  0.11258533165305912  0.9461981762302896  1.0000
  H   H18       1.0  0.3738285660798032  0.8874146680370655  0.44619817576315474  1.0000
  H   H19       1.0  0.6261714337011901  0.38741466796179125  0.05380182296780741  1.0000
  H   H20       1.0  0.8738285659702999  0.6125853317283335  0.5538018234349423  1.0000
  H   H21       1.0  0.4642855883471155  0.219432259988819  0.006611198429031722  1.0000
  H   H22       1.0  0.035714411543381154  0.7805677397013058  0.5066111988961667  1.0000
  H   H23       1.0  0.9642855882376121  0.2805677400864554  0.9933888025052382  1.0000
  H   H24       1.0  0.5357144114338779  0.7194322600640933  0.4933888020381032  1.0000
  H   H25       1.0  0.6966742346689456  0.9988096308089727  0.0981640779210324  1.0000
  H   H26       1.0  0.8033257656939559  0.0011903693415761317  0.5981640783881673  1.0000
  H   H27       1.0  0.19667423477844906  0.5011903689564264  0.9018359212770647  1.0000
  H   H28       1.0  0.3033257651120476  0.4988096307336982  0.4018359225461025  1.0000
  H   H29       1.0  0.22799458020106259  0.08753230341199854  0.64276315772768  1.0000
  H   H30       1.0  0.2720054196894341  0.9124676967385502  0.14276315726054503  1.0000
  H   H31       1.0  0.7279945800915593  0.4124676966632759  0.3572368432065899  1.0000
  H   H32       1.0  0.7720054195799307  0.5875323034872729  0.857236841937552  1.0000
  H   H33       1.0  0.6795332919380275  0.07231451897526996  0.7668022851642283  1.0000
  H   H34       1.0  0.8204667077334625  0.9276854811752788  0.26680228469709333  1.0000
  H   H35       1.0  0.17953329204753074  0.4276854811000045  0.23319771577004159  1.0000
  H   H36       1.0  0.32046670784296594  0.5723145185901203  0.7331977145010038  1.0000
  H   H37       1.0  0.6103002214173056  0.018605982093107747  0.46630752737529474  1.0000
  H   H38       1.0  0.8896997789455959  0.981394018057441  0.9663075278424296  1.0000
  H   H39       1.0  0.1103002215268089  0.48139401798216663  0.5336924735589751  1.0000
  H   H40       1.0  0.38969977836368774  0.518605981707958  0.0336924730918402  1.0000
  H   H41       1.0  0.0955527412096465  0.22251690558063617  0.3073800475532996  1.0000
  H   H42       1.0  0.40444725868085013  0.7774830945699127  0.8073800480204345  1.0000
  H   H43       1.0  0.5955527411001431  0.2774830944946382  0.6926199516447975  1.0000
  H   H44       1.0  0.9044472585713468  0.7225169051954865  0.19261995117766254  1.0000
  H   H45       1.0  0.5754461036375024  0.1622679374988552  0.8016761578685639  1.0000
  H   H46       1.0  0.9245538960339877  0.8377320626516935  0.30167615740142906  1.0000
  H   H47       1.0  0.07544610374700565  0.3377320625764192  0.19832384306570588  1.0000
  H   H48       1.0  0.42455389614349104  0.6622679375741296  0.6983238435328408  1.0000
  H   H49       1.0  0.5082972492325063  0.10960875127397024  0.5007483360823133  1.0000
  H   H50       1.0  0.9917027511303952  0.8903912488765785  0.0007483373513511347  1.0000
  H   H51       1.0  0.008297248650598067  0.39039124880130416  0.49925166311578384  1.0000
  H   H52       1.0  0.4917027512398986  0.6096087513492446  0.9992516635829187  1.0000
  H   H53       1.0  0.1931149230583793  0.2613766911415078  0.22841394858673275  1.0000
  H   H54       1.0  0.306885077523529  0.7386233085486169  0.7284139490538678  1.0000
  H   H55       1.0  0.6931149229488759  0.23862330847334248  0.7715860506113643  1.0000
  H   H56       1.0  0.8068850774140256  0.7613766912167822  0.2715860518804022  1.0000
  H   H57       1.0  0.17112798612995264  0.9795668859098184  0.6411199604581085  1.0000
  H   H58       1.0  0.32887201376054404  0.020433114240730296  0.14111995999097357  1.0000
  H   H59       1.0  0.6711279860204493  0.5204331143160047  0.3588800387399886  1.0000
  H   H60       1.0  0.8288720136510407  0.4795668858345441  0.8588800392071235  1.0000
  H   H61       1.0  0.09005082623017778  0.9381113496104052  0.2938469313224437  1.0000
  H   H62       1.0  0.40994917366031886  0.061888650540143676  0.7938469317895787  1.0000
  H   H63       1.0  0.5900508268120861  0.561888650615418  0.7061530678756534  1.0000
  H   H64       1.0  0.9099491735508155  0.4381113495351307  0.2061530691446912  1.0000
  H   H65       1.0  0.4848898202419982  0.4277600375697332  0.5681433867916611  1.0000
  H   H66       1.0  0.015110180339910049  0.5722399625808156  0.06814338632452618  1.0000
  H   H67       1.0  0.9848898201324949  0.07223996250554121  0.43185661240643597  1.0000
  H   H68       1.0  0.5151101802304067  0.9277600376450075  0.9318566128735709  1.0000
  H   H69       1.0  0.4668238351223564  0.35695255333855197  0.7151282756421142  1.0000
  H   H70       1.0  0.03317616545955185  0.6430474468119968  0.2151282751749793  1.0000
  H   H71       1.0  0.9668238350128531  0.1430474467367224  0.28487172355598284  1.0000
  H   H72       1.0  0.5331761653500485  0.8569525529534022  0.7848717240231178  1.0000
  H   H73       1.0  0.3872761164726489  0.4192905068661527  0.7504622532350507  1.0000
  H   H74       1.0  0.11272388410925932  0.580709493284396  0.2504622527679157  1.0000
  H   H75       1.0  0.8872761163631456  0.08070949320912171  0.24953774596304637  1.0000
  H   H76       1.0  0.612723883999756  0.919290506941427  0.7495377464301813  1.0000
  H   H77       1.0  0.46579515980968905  0.42351448839557676  0.20677292450068696  1.0000
  H   H78       1.0  0.0342048400808076  0.576485511294548  0.7067729249678218  1.0000
  H   H79       1.0  0.9657951597001857  0.07648551121927354  0.7932270746974102  1.0000
  H   H80       1.0  0.5342048399713042  0.9235144884708512  0.29322707423027516  1.0000
  H   H81       1.0  0.35378510566366733  0.40619430129519135  0.09143825041937736  1.0000
  H   H82       1.0  0.14621489491824094  0.5938056988553574  0.5914382508865123  1.0000
  H   H83       1.0  0.8537851055541641  0.09380569878008306  0.9085617487787196  1.0000
  H   H84       1.0  0.6462148948087376  0.9061943013704656  0.40856174831158476  1.0000
  H   H85       1.0  0.4392872785774674  0.3477443762697667  0.10783759695592657  1.0000
  H   H86       1.0  0.06071272131302926  0.652255623420358  0.6078375974230615  1.0000
  H   H87       1.0  0.939287278467964  0.15225562334508363  0.8921624039783432  1.0000
  H   H88       1.0  0.5607127212035259  0.8477443763450411  0.3921624035112084  1.0000
  H   H89       1.0  0.2221263809209435  0.28131699462224347  0.6744944864898103  1.0000
  H   H90       1.0  0.27787361896955315  0.7186830055283053  0.17449448602267534  1.0000
  H   H91       1.0  0.7221263808114401  0.2186830054530309  0.32550551444445963  1.0000
  H   H92       1.0  0.7778736195514614  0.7813169946975179  0.8255055149115945  1.0000
  H   H93       1.0  0.2608555663593662  0.351886233339016  0.7960850182503524  1.0000
  H   H94       1.0  0.23914443422254208  0.6481137668115329  0.2960850195193903  1.0000
  H   H95       1.0  0.7608555662498628  0.14811376673625842  0.20391498094774466  1.0000
  H   H96       1.0  0.7391444341130388  0.8518862334142904  0.7039149814148795  1.0000
  H   H97       1.0  0.3382379780628572  0.2893712794464344  0.7722346830314387  1.0000
  H   H98       1.0  0.16176202182763944  0.7106287207041143  0.27223468256430383  1.0000
  H   H99       1.0  0.8382379779533539  0.21062872062883997  0.2277653179028311  1.0000
  H   H100      1.0  0.6617620217181361  0.7893712795217088  0.7277653166337933  1.0000
  C   C1        1.0  0.5272575116888734  0.24693248866717793  0.3354767871137124  1.0000
  C   C2        1.0  0.9727424879826164  0.7530675114833709  0.8354767875808473  1.0000
  C   C3        1.0  0.02725751179837677  0.25306751140809647  0.6645232120843846  1.0000
  C   C4        1.0  0.4727424880921199  0.7469324887424523  0.1645232133534225  1.0000
  C   C5        1.0  0.180305636177224  0.1068504828095838  0.2954381111189014  1.0000
  C   C6        1.0  0.3196943644046843  0.8931495173409649  0.7954381098498634  1.0000
  C   C7        1.0  0.6803056360677208  0.39314951726569053  0.7045618898153684  1.0000
  C   C8        1.0  0.8196943642951809  0.6068504828848582  0.20456188934823358  1.0000
  C   C9        1.0  0.536018653294512  0.14230996064017515  0.1537884135570342  1.0000
  C   C10       1.0  0.9639813470683896  0.8576900390499494  0.6537884140241691  1.0000
  C   C11       1.0  0.0360186534040154  0.35769003897467516  0.8462115856410628  1.0000
  C   C12       1.0  0.46398134648648126  0.6423099607154495  0.34621158517392797  1.0000
  C   C13       1.0  0.31049166243973375  0.1745318584197071  0.15678469709446247  1.0000
  C   C14       1.0  0.1895083374507629  0.8254681417308417  0.6567846975615974  1.0000
  C   C15       1.0  0.8104916623302304  0.3254681416555673  0.8432153021036347  1.0000
  C   C16       1.0  0.6895083380326711  0.6745318584949814  0.34321530163649966  1.0000
  C   C17       1.0  0.13529164068812785  0.08354251658601126  0.09894453099674719  1.0000
  C   C18       1.0  0.3647083592023688  0.9164574831041135  0.5989445314638822  1.0000
  C   C19       1.0  0.6352916405786245  0.416457483028839  0.90105546820135  1.0000
  C   C20       1.0  0.8647083590928654  0.5835425166612856  0.40105546773421497  1.0000
  C   C21       1.0  0.4760383726716315  0.1993151062413495  0.17921089317388011  1.0000
  C   C22       1.0  0.02396162721886513  0.8006848939091993  0.6792108936410151  1.0000
  C   C23       1.0  0.9760383725621282  0.3006848938339249  0.8207891060242171  1.0000
  C   C24       1.0  0.5239616271093618  0.6993151063166239  0.3207891072932548  1.0000
  C   C25       1.0  0.2204366752943518  0.17085210550834568  0.3000437886415806  1.0000
  C   C26       1.0  0.2795633245961449  0.829147894642203  0.8000437891087155  1.0000
  C   C27       1.0  0.7204366751848484  0.3291478945669287  0.6999562105565165  1.0000
  C   C28       1.0  0.7795633244866416  0.6708521055836201  0.19995621008938155  1.0000
  C   C29       1.0  0.1923923329097583  0.0692499948361798  0.49054405339840357  1.0000
  C   C30       1.0  0.3076076669807384  0.930750005314369  0.9905440538655386  1.0000
  C   C31       1.0  0.6923923334916666  0.43075000523909457  0.5094559457996936  1.0000
  C   C32       1.0  0.8076076668712351  0.5692499949114542  0.00945594706873134  1.0000
  C   C33       1.0  0.1024149498060044  0.023133125247482098  0.09936928914341261  1.0000
  C   C34       1.0  0.39758505008449224  0.9768668749030667  0.5993692878743747  1.0000
  C   C35       1.0  0.6024149503879127  0.4768668748277923  0.9006307117908572  1.0000
  C   C36       1.0  0.897585049974989  0.5231331253227565  0.4006307113237223  1.0000
  C   C37       1.0  0.584059601203144  0.1309601159430046  0.9479136972499864  1.0000
  C   C38       1.0  0.9159403991597576  0.8690398842075442  0.4479136967828514  1.0000
  C   C39       1.0  0.08405960131264738  0.3690398841322698  0.05208630368428349  1.0000
  C   C40       1.0  0.41594039857784926  0.630960116018279  0.5520863041514185  1.0000
  C   C41       1.0  0.11460357651563181  0.985561091632181  0.29400242990266356  1.0000
  C   C42       1.0  0.38539642406627644  0.014438908518367797  0.7940024303697985  1.0000
  C   C43       1.0  0.6146035764061285  0.5144389081332181  0.7059975710316063  1.0000
  C   C44       1.0  0.8853964239567731  0.4855610915569066  0.20599757056447138  1.0000
  C   C45       1.0  0.5460452738570565  0.10132602244298244  0.3399773168034024  1.0000
  C   C46       1.0  0.9539547258144335  0.8986739777075663  0.8399773155343646  1.0000
  C   C47       1.0  0.046045273966559774  0.39867397763229195  0.6600226841308675  1.0000
  C   C48       1.0  0.4539547259239369  0.6013260225182568  0.16002268366373257  1.0000
  C   C49       1.0  0.6420407923104879  0.07979359186442508  0.9282521341166388  1.0000
  C   C50       1.0  0.8579592080524135  0.9202064078256996  0.4282521353856766  1.0000
  C   C51       1.0  0.1420407917285797  0.4202064077504252  0.07174786508145836  1.0000
  C   C52       1.0  0.35795920816191695  0.5797935919396995  0.5717478655485932  1.0000
  C   C53       1.0  0.1599377979194816  0.008693502150956954  0.4895720865740076  1.0000
  C   C54       1.0  0.3400622026624267  0.9913064975391677  0.9895720870411425  1.0000
  C   C55       1.0  0.6599377978099782  0.4913064979243174  0.5104279126240895  1.0000
  C   C56       1.0  0.8400622025529233  0.5086935022262313  0.010427913893127399  1.0000
  C   C57       1.0  0.6521101746082655  0.0391542778609993  0.1140507847163741  1.0000
  C   C58       1.0  0.8478898250632244  0.9608457222895496  0.6140507851835091  1.0000
  C   C59       1.0  0.15211017471776886  0.4608457222142751  0.8859492162178957  1.0000
  C   C60       1.0  0.3478898251727278  0.5391542779362737  0.38594921575076085  1.0000
  C   C61       1.0  0.6037073695076658  0.0501881399645537  0.32023671613973087  1.0000
  C   C62       1.0  0.8962926308552357  0.9498118601859951  0.8202367166068658  1.0000
  C   C63       1.0  0.10370736961716918  0.4498118601107207  0.6797632847945391  1.0000
  C   C64       1.0  0.39629263096473905  0.5501881400398281  0.17976328432740407  1.0000
  C   C65       1.0  0.30891479934003035  0.3336115972699073  0.4470969351254729  1.0000
  C   C66       1.0  0.1910852012418779  0.6663884028806415  0.9470969355926078  1.0000
  C   C67       1.0  0.808914799230527  0.1663884028053671  0.552903065808797  1.0000
  C   C68       1.0  0.6910852011323746  0.8336115973451818  0.052903065341662094  1.0000
  C   C69       1.0  0.41155480778087244  0.3886686766579615  0.19532373821195564  1.0000
  C   C70       1.0  0.08844519210962423  0.6113313234925872  0.6953237386790905  1.0000
  C   C71       1.0  0.9115548076713691  0.11133132341731285  0.8046762609861414  1.0000
  C   C72       1.0  0.5884451926915325  0.8886686767332359  0.3046762622551793  1.0000
  C   C73       1.0  0.28073033270835474  0.3130030121929582  0.6851341700596193  1.0000
  C   C74       1.0  0.21926966718214191  0.6869969874971665  0.18513416959248438  1.0000
  C   C75       1.0  0.7807303325988514  0.18699698742189214  0.31486583087465053  1.0000
  C   C76       1.0  0.7192696670726386  0.8130030122682326  0.8148658296056127  1.0000
  C   C77       1.0  0.43221259642080606  0.3953010494797853  0.6268149539557633  1.0000
  C   C78       1.0  0.06778740346969063  0.6046989506707635  0.12681495348862828  1.0000
  C   C79       1.0  0.9322125963113027  0.10469895059548906  0.37318504697850663  1.0000
  C   C80       1.0  0.5677874033601873  0.8953010495550597  0.8731850457094689  1.0000
  N   N1        1.0  0.1571422741101533  0.21901196095525619  0.20811963206969458  1.0000
  N   N2        1.0  0.34285772578034335  0.7809880391952926  0.7081196325368295  1.0000
  N   N3        1.0  0.65714227400065  0.2809880391200182  0.7918803671284025  1.0000
  N   N4        1.0  0.84285772567084  0.7190119605701065  0.29188036666126754  1.0000
  N   N5        1.0  0.3868623709118995  0.18587533545198326  0.28402403545260524  1.0000
  N   N6        1.0  0.1131376289785971  0.8141246646985655  0.7840240359197402  1.0000
  N   N7        1.0  0.8868623708023963  0.31412466462329114  0.7159759637454918  1.0000
  N   N8        1.0  0.6131376288690937  0.6858753350668335  0.2159759650145297  1.0000
  N   N9        1.0  0.37975382756194975  0.3737576064783108  0.42778222285695633  1.0000
  N   N10       1.0  0.12024617232854687  0.626242393672238  0.9277822233240913  1.0000
  N   N11       1.0  0.8797538274524463  0.12624239359696354  0.5722177763411407  1.0000
  N   N12       1.0  0.6202461722190435  0.8737576065535853  0.0722177758740058  1.0000
  O   O1        1.0  0.590953359603703  0.27869293378888166  0.2452928642450885  1.0000
  O   O2        1.0  0.9090466407591986  0.7213070663616671  0.7452928647122234  1.0000
  O   O3        1.0  0.09095335971320634  0.2213070662863927  0.7547071366891814  1.0000
  O   O4        1.0  0.40904664086870196  0.7786929338641561  0.25470713622204644  1.0000
  O   O5        1.0  0.5026851204731759  0.24839049561454835  0.5476131087662144  1.0000
  O   O6        1.0  0.9973148791983141  0.7516095045360003  0.04761310829907954  1.0000
  O   O7        1.0  0.0026851205826792716  0.25160950446072605  0.45238689043188257  1.0000
  O   O8        1.0  0.49731487930781737  0.7483904956898229  0.9523868908990176  1.0000
  O   O9        1.0  0.3101298640177548  0.16786778171723993  0.9427459337848954  1.0000
  O   O10       1.0  0.18987013587274182  0.832132218433309  0.4427459333177604  1.0000
  O   O11       1.0  0.8101298639082515  0.33213221835803447  0.05725406714937452  1.0000
  O   O12       1.0  0.6898701357632384  0.6678677817925143  0.5572540676165095  1.0000
  O   O13       1.0  0.27003217030083765  0.3146936332079316  0.2648934477813541  1.0000
  O   O14       1.0  0.229967829589659  0.6853063669426172  0.764893448248489  1.0000
  O   O15       1.0  0.7700321701913343  0.1853063668673428  0.735106551416743  1.0000
  O   O16       1.0  0.7299678294801557  0.8146936332832059  0.23510655094960808  1.0000
