data_image0
_chemical_formula_structural       H48C24N16I16
_chemical_formula_sum              "H48 C24 N16 I16"
_cell_length_a       6.019264160164326
_cell_length_b       16.468837535970216
_cell_length_c       14.638233606858446
_cell_angle_alpha    90.0
_cell_angle_beta     92.109323654413
_cell_angle_gamma    90.0

_space_group_name_H-M_alt    "P 1"
_space_group_IT_number       1

loop_
  _space_group_symop_operation_xyz
  'x, y, z'

loop_
  _atom_site_type_symbol
  _atom_site_label
  _atom_site_symmetry_multiplicity
  _atom_site_fract_x
  _atom_site_fract_y
  _atom_site_fract_z
  _atom_site_occupancy
  H   H1        1.0  0.4000405747830225  0.5059610146618104  0.3190394846695311  1.0000
  H   H2        1.0  0.5999594265744291  0.005961014539464672  0.18096051578517353  1.0000
  H   H3        1.0  0.5999594261551007  0.49403898497567367  0.6809605156949632  1.0000
  H   H4        1.0  0.40004057436369406  0.9940389850980194  0.8190394845793209  1.0000
  H   H5        1.0  0.18425439844267108  0.5766813079099632  0.28591930070569493  1.0000
  H   H6        1.0  0.8157456028536144  0.07668130839482488  0.21408069906540406  1.0000
  H   H7        1.0  0.8157456024954521  0.42331869172752085  0.7140806996587995  1.0000
  H   H8        1.0  0.18425439802334265  0.9233186918498666  0.7859193006154847  1.0000
  H   H9        1.0  0.24440582850815828  0.7207133420361811  0.30613367228164656  1.0000
  H   H10       1.0  0.7555941711267936  0.22071334191383535  0.19386632748944302  1.0000
  H   H11       1.0  0.7555941707686314  0.279286657601303  0.6938663280828384  1.0000
  H   H12       1.0  0.2444058280888298  0.7792866577236487  0.8061336721914362  1.0000
  H   H13       1.0  0.504961911902971  0.7567867849068409  0.353398700702504  1.0000
  H   H14       1.0  0.4950380877319809  0.2567867847844952  0.14660129906858554  1.0000
  H   H15       1.0  0.4950380873126525  0.24321321533785056  0.6466012989783753  1.0000
  H   H16       1.0  0.5049619114836426  0.7432132154601963  0.8533987006122936  1.0000
  H   H17       1.0  0.47311697251281065  0.6571885341852931  0.09026640655328376  1.0000
  H   H18       1.0  0.5268830271221414  0.15718853406294736  0.40973359321780584  1.0000
  H   H19       1.0  0.5268830267028128  0.3428114660593984  0.9097335931275955  1.0000
  H   H20       1.0  0.4731169737548156  0.8428114661817441  0.5902664064630828  1.0000
  H   H21       1.0  0.22611079926002287  0.663469720685194  0.15491929977938004  1.0000
  H   H22       1.0  0.7738892020362625  0.1634697205628484  0.3450806999917189  1.0000
  H   H23       1.0  0.773889201616934  0.3365302795594973  0.8450806999015086  1.0000
  H   H24       1.0  0.22611079884069438  0.836530279681843  0.6549192996891697  1.0000
  H   H25       1.0  0.7328033700834162  0.49741586326951387  0.2300385067237078  1.0000
  H   H26       1.0  0.2671966295515358  0.9974158633918597  0.2699614930473818  1.0000
  H   H27       1.0  0.2671966291322073  0.5025841363679701  0.7699614929571714  1.0000
  H   H28       1.0  0.7328033713254212  0.0025841368528317825  0.7300385066335068  1.0000
  H   H29       1.0  0.762354395950784  0.5633661762547354  0.13364679109627314  1.0000
  H   H30       1.0  0.23764560368416796  0.06336617673959713  0.3663532086748164  1.0000
  H   H31       1.0  0.23764560326483955  0.4366338233827486  0.8663532085846062  1.0000
  H   H32       1.0  0.7623543972539553  0.9366338235050944  0.633646791689678  1.0000
  H   H33       1.0  0.831380404943975  0.7471065770808908  0.26888103633851973  1.0000
  H   H34       1.0  0.16861959475214316  0.2471065769585451  0.23111896411617558  1.0000
  H   H35       1.0  0.16861959599414814  0.25289342255659325  0.7311189640259746  1.0000
  H   H36       1.0  0.8313804045246467  0.752893422678939  0.7688810362483095  1.0000
  H   H37       1.0  0.8204121788998885  0.7053494762231048  0.15562650230175057  1.0000
  H   H38       1.0  0.17958782073506352  0.2053494767079665  0.34437349746933904  1.0000
  H   H39       1.0  0.17958782031573506  0.29465052341437925  0.8443734973791287  1.0000
  H   H40       1.0  0.8204121801418934  0.7946505235367249  0.6556265022115496  1.0000
  H   H41       1.0  0.7945260033792719  0.6608386612734196  0.39830991197828586  1.0000
  H   H42       1.0  0.2054739979781797  0.16083866115107387  0.10169008847641879  1.0000
  H   H43       1.0  0.2054739975588512  0.3391613383640645  0.6016900883862084  1.0000
  H   H44       1.0  0.7945260029599435  0.8391613384864103  0.8983099118880755  1.0000
  H   H45       1.0  0.7486046521694956  0.553881358054372  0.3832553839172074  1.0000
  H   H46       1.0  0.25139534746545633  0.053881357932026225  0.11674461585388211  1.0000
  H   H47       1.0  0.2513953487074614  0.4461186421903195  0.616744615763681  1.0000
  H   H48       1.0  0.7486046517501671  0.9461186423126652  0.8832553838269971  1.0000
  C   C1        1.0  0.36478894783777066  0.5663319848549672  0.29016239690815  1.0000
  C   C2        1.0  0.6352110534585147  0.06633198473262149  0.20983760286294892  1.0000
  C   C3        1.0  0.6352110530391862  0.4336680147825169  0.7098376027727386  1.0000
  C   C4        1.0  0.36478894747960844  0.9336680149048625  0.7901623975015454  1.0000
  C   C5        1.0  0.4249910505438281  0.71090846420875  0.3087884260063843  1.0000
  C   C6        1.0  0.5750089491522901  0.2109084640864042  0.19121157444831105  1.0000
  C   C7        1.0  0.5750089503942951  0.2890915354287341  0.6912115743581101  1.0000
  C   C8        1.0  0.42499105012449967  0.7890915355510798  0.808788425916174  1.0000
  C   C9        1.0  0.40685105972772656  0.6542532353280169  0.1590893320312928  1.0000
  C   C10       1.0  0.5931489399072254  0.1542532358128786  0.3409106677397968  1.0000
  C   C11       1.0  0.5931489394878969  0.34574676430946716  0.8409106676495863  1.0000
  C   C12       1.0  0.4068510609697315  0.8457467644318128  0.6590893319410919  1.0000
  C   C13       1.0  0.6990013935435283  0.5584679452882929  0.2028347085574313  1.0000
  C   C14       1.0  0.3009986060914237  0.05846794516594722  0.2971652912136583  1.0000
  C   C15       1.0  0.3009986073334287  0.4415320543491911  0.7971652911234574  1.0000
  C   C16       1.0  0.6990013931241998  0.9415320544715368  0.702834708467221  1.0000
  C   C17       1.0  0.7536156841978426  0.7007793430952741  0.22422505456032985  1.0000
  C   C18       1.0  0.24638431549827555  0.20077934297292835  0.2757749458943654  1.0000
  C   C19       1.0  0.2463843150789471  0.2992206571494174  0.7757749458041551  1.0000
  C   C20       1.0  0.7536156837785142  0.7992206566645558  0.7242250544701195  1.0000
  C   C21       1.0  0.7164558605556621  0.6143657175499565  0.35399516856383756  1.0000
  C   C22       1.0  0.2835441407406232  0.11436571803481821  0.14600483120726138  1.0000
  C   C23       1.0  0.28354414032129477  0.38563428208752754  0.646004831117051  1.0000
  C   C24       1.0  0.7164558601363337  0.8856342822098733  0.8539951684736271  1.0000
  N   N1        1.0  0.4714449782591297  0.6287778683457605  0.3494904770122482  1.0000
  N   N2        1.0  0.5285550213758223  0.1287778688306222  0.15050952275884133  1.0000
  N   N3        1.0  0.5285550209564939  0.3712221312917235  0.650509522668631  1.0000
  N   N4        1.0  0.4714449778398012  0.8712221314140692  0.8494904769220379  1.0000
  N   N5        1.0  0.4533284662145158  0.5713126970528283  0.19712179338491537  1.0000
  N   N6        1.0  0.5466715350817696  0.0713126969304826  0.30287820638618357  1.0000
  N   N7        1.0  0.5466715346624412  0.4286873031918631  0.8028782062959732  1.0000
  N   N8        1.0  0.4533284657951874  0.9286873033142088  0.6971217932947051  1.0000
  N   N9        1.0  0.512590891797311  0.7156796886396413  0.21763589288028093  1.0000
  N   N10       1.0  0.4874091094989744  0.21567968851729546  0.28236410689081803  1.0000
  N   N11       1.0  0.487409109079646  0.2843203116050503  0.7823641068006078  1.0000
  N   N12       1.0  0.5125908913779825  0.784320311727396  0.7176358927900705  1.0000
  N   N13       1.0  0.8056089362782413  0.6195359246039777  0.26235314104272356  1.0000
  N   N14       1.0  0.19439106335671072  0.11953592448163186  0.23764685872836602  1.0000
  N   N15       1.0  0.19439106293738226  0.3804640756407139  0.7376468586381556  1.0000
  N   N16       1.0  0.8056089358589128  0.8804640751558522  0.7623531409525132  1.0000
  I   I1        1.0  0.2894970468307095  0.620520288555871  0.49865401519048697  1.0000
  I   I2        1.0  0.7105029528042426  0.1205202884335254  0.0013459845806026566  1.0000
  I   I3        1.0  0.710502952384914  0.3794797116888204  0.5013459844903922  1.0000
  I   I4        1.0  0.2894970480727144  0.8794797112039586  0.9986540151002861  1.0000
  I   I5        1.0  0.03952156756366905  0.6145209677304514  0.6580373333212051  1.0000
  I   I6        1.0  0.9604784329551256  0.11452096760810568  0.8419626669530791  1.0000
  I   I7        1.0  0.9604784317131206  0.38547903251424004  0.34196266704327993  1.0000
  I   I8        1.0  0.039521567921831285  0.8854790320293784  0.15803733272780962  1.0000
  I   I9        1.0  0.26694879699226504  0.4589752229621892  0.11299967128864727  1.0000
  I   I10       1.0  0.7330512043651867  0.958975223084535  0.3870003291660574  1.0000
  I   I11       1.0  0.7330512039458582  0.5410247766752949  0.8870003290758471  1.0000
  I   I12       1.0  0.2669487965729365  0.04102477716015657  0.6129996711984369  1.0000
  I   I13       1.0  0.03638544243102696  0.323293460656896  0.03575072104217509  1.0000
  I   I14       1.0  0.963614557203925  0.8232934607792417  0.46424927872891447  1.0000
  I   I15       1.0  0.9636145567845966  0.6767065389805881  0.9642492786387041  1.0000
  I   I16       1.0  0.03638544367303195  0.17670653946544967  0.5357507209519741  1.0000
