data_image0
_chemical_formula_structural       H54C54O18Cl3
_chemical_formula_sum              "H54 C54 O18 Cl3"
_cell_length_a       16.297323456835684
_cell_length_b       16.297323456835464
_cell_length_c       5.245025452953165
_cell_angle_alpha    90.0
_cell_angle_beta     90.0
_cell_angle_gamma    120.00000000000047

_space_group_name_H-M_alt    "P 1"
_space_group_IT_number       1

loop_
  _space_group_symop_operation_xyz
  'x, y, z'

loop_
  _atom_site_type_symbol
  _atom_site_label
  _atom_site_symmetry_multiplicity
  _atom_site_fract_x
  _atom_site_fract_y
  _atom_site_fract_z
  _atom_site_occupancy
  H   H1        1.0  0.14053592405074541  0.1226921407408587  0.47064912880643806  1.0000
  H   H2        1.0  0.47386925440404565  0.7893588113132993  0.13731579883839912  1.0000
  H   H3        1.0  0.8072025942198925  0.45602547109156677  0.8039824587744769  1.0000
  H   H4        1.0  0.8773078589083744  0.01784378376601251  0.47064912880643806  1.0000
  H   H5        1.0  0.9821562168137697  0.8594640757560338  0.47064912880643806  1.0000
  H   H6        1.0  0.210641189302711  0.684510453581654  0.13731579883839912  1.0000
  H   H7        1.0  0.31548954664462253  0.5261307454053256  0.13731579883839912  1.0000
  H   H8        1.0  0.5439745291185578  0.35117711335992136  0.8039824587744769  1.0000
  H   H9        1.0  0.6488228868147302  0.19279740589211472  0.8039824587744769  1.0000
  H   H10       1.0  0.19877941423933732  0.19809098528490668  0.0797606729943424  1.0000
  H   H11       1.0  0.5321127442383767  0.8647576551488257  0.7464273443698308  1.0000
  H   H12       1.0  0.8654460840542237  0.5314243149270932  0.4130940029623813  1.0000
  H   H13       1.0  0.8019090144990887  0.0006884286563066082  0.0797606729943424  1.0000
  H   H14       1.0  0.9993115712938002  0.80122058561317  0.0797606729943424  1.0000
  H   H15       1.0  0.13524234489342532  0.667355098471948  0.7464273443698308  1.0000
  H   H16       1.0  0.33264490147891396  0.4678872559709835  0.7464273443698308  1.0000
  H   H17       1.0  0.46857568506353303  0.33402175895873704  0.4130940029623813  1.0000
  H   H18       1.0  0.6659782412947608  0.13455391574925102  0.4130940029623813  1.0000
  H   H19       1.0  0.33664864346290935  0.26372271246469536  0.7833199756326688  1.0000
  H   H20       1.0  0.6699819728483511  0.9303893823286145  0.4499866456646298  1.0000
  H   H21       1.0  0.0033153130594950884  0.5970560420586041  0.11665330616374867  1.0000
  H   H22       1.0  0.7362772876175175  0.07292593067091732  0.7833199756326688  1.0000
  H   H23       1.0  0.9270740693060602  0.6633513571272923  0.7833199756326688  1.0000
  H   H24       1.0  0.06961061775251728  0.7395926011950802  0.4499866456646298  1.0000
  H   H25       1.0  0.260407399136913  0.33001802677658415  0.4499866456646298  1.0000
  H   H26       1.0  0.4029439581819619  0.4062592609733477  0.11665330616374867  1.0000
  H   H27       1.0  0.593740738902646  0.9966846867212011  0.11665330616374867  1.0000
  H   H28       1.0  0.5235755330060637  0.20996660833791508  0.838462424910423  1.0000
  H   H29       1.0  0.856908863359364  0.8766332789103558  0.5051290949423841  1.0000
  H   H30       1.0  0.19024220295691022  0.5432999386403454  0.17179575353493448  1.0000
  H   H31       1.0  0.7900333911913363  0.3136089241769574  0.838462424910423  1.0000
  H   H32       1.0  0.6863910758348264  0.47642446703951097  0.838462424910423  1.0000
  H   H33       1.0  0.1233667213263359  0.9802755947011201  0.5051290949423841  1.0000
  H   H34       1.0  0.019724405665679207  0.14309113668880277  0.5051290949423841  1.0000
  H   H35       1.0  0.45670006114218287  0.6469422544793878  0.17179575353493448  1.0000
  H   H36       1.0  0.3530577454314121  0.8097577966334197  0.17179575353493448  1.0000
  H   H37       1.0  0.4621475932383461  0.13035040811377596  0.2215216342459902  1.0000
  H   H38       1.0  0.7954809232373855  0.797017077977695  0.8881883037149103  1.0000
  H   H39       1.0  0.12881426344852956  0.4636837377076848  0.5548549642140291  1.0000
  H   H40       1.0  0.8696495920845084  0.3317971854290226  0.2215216342459902  1.0000
  H   H41       1.0  0.6682028144500349  0.5378524067201064  0.2215216342459902  1.0000
  H   H42       1.0  0.20298292186524738  0.998463855244664  0.8881883037149103  1.0000
  H   H43       1.0  0.0015361442808877843  0.20451907636939826  0.8881883037149103  1.0000
  H   H44       1.0  0.5363162620353551  0.665130515731453  0.5548549642140291  1.0000
  H   H45       1.0  0.3348694840466207  0.8711857363140152  0.5548549642140291  1.0000
  H   H46       1.0  0.3237835986736703  0.06439710778655248  0.5177301243545077  1.0000
  H   H47       1.0  0.6571169286727098  0.7310637776504716  0.1843967943864688  1.0000
  H   H48       1.0  0.9904502684885567  0.397730437428739  0.8510634543225467  1.0000
  H   H49       1.0  0.9356028922274271  0.2593864909820975  0.5177301243545077  1.0000
  H   H50       1.0  0.7406135088717921  0.6762164014942551  0.5177301243545077  1.0000
  H   H51       1.0  0.2689362226217636  0.9260531607977387  0.1843967943864688  1.0000
  H   H52       1.0  0.07394683905690573  0.34288307185206846  0.1843967943864688  1.0000
  H   H53       1.0  0.6022695627918713  0.5927198212845278  0.8510634543225467  1.0000
  H   H54       1.0  0.40728017887275264  0.009549731630335923  0.8510634543225467  1.0000
  C   C1        1.0  0.2541484921505326  0.12862438859929196  0.31837599931184  1.0000
  C   C2        1.0  0.587481822149572  0.7952910584632111  0.98504266878076  1.0000
  C   C3        1.0  0.9208151623196797  0.4619577189500001  0.6517093292798789  1.0000
  C   C4        1.0  0.8713756112798475  0.12552410366140726  0.31837599931184  1.0000
  C   C5        1.0  0.8744758963425093  0.7458515080022058  0.31837599931184  1.0000
  C   C6        1.0  0.20470894167418413  0.7921907734770486  0.98504266878076  1.0000
  C   C7        1.0  0.20780922617336217  0.41251817765149756  0.98504266878076  1.0000
  C   C8        1.0  0.5380422814900311  0.458857433255316  0.6517093292798789  1.0000
  C   C9        1.0  0.5411425669570676  0.07918483813828668  0.6517093292798789  1.0000
  C   C10       1.0  0.25728162392989545  0.18501621923227918  0.11173935860883484  1.0000
  C   C11       1.0  0.5906149533153372  0.8516828890961983  0.7784060280777549  1.0000
  C   C12       1.0  0.9239482937447817  0.5183495488744657  0.44507268857687377  1.0000
  C   C13       1.0  0.8149837806075628  0.0722654043455106  0.11173935860883484  1.0000
  C   C14       1.0  0.927734595849029  0.7427183766851151  0.11173935860883484  1.0000
  C   C15       1.0  0.1483171103883016  0.7389320741611518  0.7784060280777549  1.0000
  C   C16       1.0  0.26106792567988185  0.4093850463344071  0.7784060280777549  1.0000
  C   C17       1.0  0.481650451172007  0.405598734647941  0.44507268857687377  1.0000
  C   C18       1.0  0.5944012654957287  0.07605170611267455  0.44507268857687377  1.0000
  C   C19       1.0  0.33374725592430343  0.220711666860312  0.9457669146690212  1.0000
  C   C20       1.0  0.6670805859233429  0.887378336724231  0.6124335847009823  1.0000
  C   C21       1.0  0.0004139264887476809  0.5540449971627424  0.2791002452001012  1.0000
  C   C22       1.0  0.7792883332408751  0.11303558961336828  0.9457669146690212  1.0000
  C   C23       1.0  0.8869644106077109  0.6662527437892247  0.9457669146690212  1.0000
  C   C24       1.0  0.11262166302161404  0.7797022594290096  0.6124335847009823  1.0000
  C   C25       1.0  0.22029774079282452  0.33291941414703813  0.6124335847009823  1.0000
  C   C26       1.0  0.4459550028374609  0.44636891920727706  0.2791002452001012  1.0000
  C   C27       1.0  0.5536310805585575  0.9995860740916552  0.2791002452001012  1.0000
  C   C28       1.0  0.4070961074010094  0.20048367755332866  0.9839600219850608  1.0000
  C   C29       1.0  0.7404294374000487  0.8671503474172477  0.6506266920170221  1.0000
  C   C30       1.0  0.07376277735185592  0.533817007855759  0.3172933525161409  1.0000
  C   C31       1.0  0.7995163219511264  0.2066124296346138  0.9839600219850608  1.0000
  C   C32       1.0  0.7933875700664931  0.5929038923664409  0.9839600219850608  1.0000
  C   C33       1.0  0.13284965234546284  0.8732790994502551  0.6506266920170221  1.0000
  C   C34       1.0  0.12672090025160662  0.25957056272425433  0.6506266920170221  1.0000
  C   C35       1.0  0.46618299251557055  0.5399457599370442  0.3172933525161409  1.0000
  C   C36       1.0  0.4600542406309373  0.9262372226688714  0.3172933525161409  1.0000
  C   C37       1.0  0.40354572314269305  0.14339012572934584  0.1896287194259458  1.0000
  C   C38       1.0  0.7368790531417325  0.8100567955932649  0.8562953908014342  1.0000
  C   C39       1.0  0.07021239370713728  0.47672345603177624  0.5229620493939847  1.0000
  C   C40       1.0  0.8566098744900187  0.26015559753127404  0.1896287194259458  1.0000
  C   C41       1.0  0.7398444027537755  0.5964542770022851  0.1896287194259458  1.0000
  C   C42       1.0  0.18994320427075753  0.9268222673469153  0.8562953908014342  1.0000
  C   C43       1.0  0.07317773258462833  0.2631209466515769  0.8562953908014342  1.0000
  C   C44       1.0  0.5232765444408652  0.5934889278337044  0.5229620493939847  1.0000
  C   C45       1.0  0.4065110723503612  0.9297876065961939  0.5229620493939847  1.0000
  C   C46       1.0  0.326958455914103  0.10761565668936587  0.35547209002584196  1.0000
  C   C47       1.0  0.6602917859131424  0.7742823265532849  0.022138760057803075  1.0000
  C   C48       1.0  0.99362512608325  0.440948987040074  0.6888054219004494  1.0000
  C   C49       1.0  0.8923843436808161  0.21934279964996745  0.35547209002584196  1.0000
  C   C50       1.0  0.7806572007915681  0.6730415439235716  0.35547209002584196  1.0000
  C   C51       1.0  0.225717673461555  0.8860094694656089  0.022138760057803075  1.0000
  C   C52       1.0  0.11399053062242102  0.3397082135728635  0.022138760057803075  1.0000
  C   C53       1.0  0.5590510132774018  0.5526761292438762  0.6888054219004494  1.0000
  C   C54       1.0  0.4473238707925287  0.006374874059652583  0.6888054219004494  1.0000
  O   O1        1.0  0.1810531372689124  0.0920920239434683  0.4880156431955558  1.0000
  O   O2        1.0  0.5143864676222125  0.7587586945159089  0.15468231322751688  1.0000
  O   O3        1.0  0.8477198074380596  0.42542535429417644  0.8213489731635948  1.0000
  O   O4        1.0  0.907907975644354  0.08896111316553265  0.4880156431955558  1.0000
  O   O5        1.0  0.9110388865053624  0.8189468624453824  0.4880156431955558  1.0000
  O   O6        1.0  0.24124130603869043  0.755627782981174  0.15468231322751688  1.0000
  O   O7        1.0  0.24437221669047607  0.4856135328031959  0.15468231322751688  1.0000
  O   O8        1.0  0.5745746458545373  0.42229444275944145  0.8213489731635948  1.0000
  O   O9        1.0  0.5777055571199207  0.15228019258146336  0.8213489731635948  1.0000
  O   O10       1.0  0.48137471404293536  0.23867079081928622  0.8178099417200869  1.0000
  O   O11       1.0  0.8147080440419748  0.9053374606832053  0.484476611752048  1.0000
  O   O12       1.0  0.14804138399378192  0.5720041211217166  0.15114327225116686  1.0000
  O   O13       1.0  0.7613292091971638  0.24270392310791292  0.8178099417200869  1.0000
  O   O14       1.0  0.7572960771463879  0.5186252863357058  0.8178099417200869  1.0000
  O   O15       1.0  0.0946625389779027  0.9093705929235543  0.484476611752048  1.0000
  O   O16       1.0  0.09062940697724085  0.1852919559849977  0.484476611752048  1.0000
  O   O17       1.0  0.42799587914801024  0.5760372534103432  0.15114327225116686  1.0000
  O   O18       1.0  0.4239627467429737  0.8519586159296145  0.15114327225116686  1.0000
  Cl  Cl1       1.0  0.0  0.0  0.9972620470421019  1.0000
  Cl  Cl2       1.0  0.3333333299990395  0.6666666698639191  0.6639287170740629  1.0000
  Cl  Cl3       1.0  0.6666666701691472  0.33333333035070817  0.3305953756666133  1.0000
