data_image0
_chemical_formula_structural       H88C64N16O16Cl24Br8
_chemical_formula_sum              "H88 C64 N16 O16 Cl24 Br8"
_cell_length_a       17.949995565647672
_cell_length_b       6.129036088912925
_cell_length_c       23.486034299898144
_cell_angle_alpha    90.0
_cell_angle_beta     97.79757043077683
_cell_angle_gamma    90.0

_space_group_name_H-M_alt    "P 1"
_space_group_IT_number       1

loop_
  _space_group_symop_operation_xyz
  'x, y, z'

loop_
  _atom_site_type_symbol
  _atom_site_label
  _atom_site_symmetry_multiplicity
  _atom_site_fract_x
  _atom_site_fract_y
  _atom_site_fract_z
  _atom_site_occupancy
  H   H1        1.0  0.1398345540767526  0.3808467002213408  0.9882709809894626  1.0000
  H   H2        1.0  0.3601654457914446  0.8808466994942342  0.011729018747471776  1.0000
  H   H3        1.0  0.8601654459401189  0.619153299956024  0.011729018866002123  1.0000
  H   H4        1.0  0.639834554225427  0.11915330068313051  0.9882709811079929  1.0000
  H   H5        1.0  0.20499747423045947  0.24602162528095733  0.03971932057935741  1.0000
  H   H6        1.0  0.29500252563773766  0.7460216245538508  0.960280679157577  1.0000
  H   H7        1.0  0.7950025257864121  0.7539783748964074  0.9602806792761073  1.0000
  H   H8        1.0  0.7049974743791338  0.253978375623514  0.03971932069788776  1.0000
  H   H9        1.0  0.11353638052159869  0.9766373836218801  0.054921539260357956  1.0000
  H   H10       1.0  0.38646361942045554  0.47663738271740874  0.945078460906331  1.0000
  H   H11       1.0  0.8864636195691299  0.023362616555484654  0.9450784610248613  1.0000
  H   H12       1.0  0.6135363800389851  0.523362617459956  0.05492153894725779  1.0000
  H   H13       1.0  0.04572046725838968  0.12984538489496017  0.009949759650549402  1.0000
  H   H14       1.0  0.4542795326098074  0.6298453841678536  0.990050240086385  1.0000
  H   H15       1.0  0.9542795327584818  0.8701546152824046  0.9900502402049153  1.0000
  H   H16       1.0  0.545720467407064  0.3701546160095112  0.00994975976907975  1.0000
  H   H17       1.0  0.45367373214703055  0.8546274053558467  0.4905283749152582  1.0000
  H   H18       1.0  0.04632626772116658  0.3546274044513754  0.5094716248216762  1.0000
  H   H19       1.0  0.546326267869841  0.14537259482151801  0.5094716249402066  1.0000
  H   H20       1.0  0.9536737322957048  0.6453725940944115  0.4905283750337885  1.0000
  H   H21       1.0  0.3834699420467252  0.0021795629534903504  0.4461466920061517  1.0000
  H   H22       1.0  0.11653005845275996  0.5021795622263837  0.5538533081624133  1.0000
  H   H23       1.0  0.6165300580440034  0.9978204372238744  0.5538533082790676  1.0000
  H   H24       1.0  0.8834699415641115  0.49782043631940304  0.4461466916930515  1.0000
  H   H25       1.0  0.2945977601830142  0.7265206543741828  0.46153634495970036  1.0000
  H   H26       1.0  0.2054022396851829  0.2265206534697114  0.538463654777234  1.0000
  H   H27       1.0  0.7054022398338573  0.273479345803182  0.5384636548957643  1.0000
  H   H28       1.0  0.7945977603316885  0.7734793450760754  0.46153634507823077  1.0000
  H   H29       1.0  0.3621561680495719  0.5906034599058839  0.5110735852548032  1.0000
  H   H30       1.0  0.13784383189248228  0.09060345900141253  0.4889264149118858  1.0000
  H   H31       1.0  0.6378438320411567  0.4093965402714809  0.48892641503041623  1.0000
  H   H32       1.0  0.8621561681982463  0.9093965411759523  0.5110735853733335  1.0000
  H   H33       1.0  0.30176343108646264  0.12511015417042587  0.7660428991763585  1.0000
  H   H34       1.0  0.19823656878173454  0.6251101550748972  0.23395710056057598  1.0000
  H   H35       1.0  0.6982365689304089  0.874889846006939  0.23395710067910633  1.0000
  H   H36       1.0  0.801763431235137  0.3748898451024676  0.7660428992948888  1.0000
  H   H37       1.0  0.21047764800427252  0.10330645648267049  0.7253822751004473  1.0000
  H   H38       1.0  0.2895223519377817  0.6033064557555639  0.27461772506624177  1.0000
  H   H39       1.0  0.789522352086456  0.8966935436946943  0.2746177251847721  1.0000
  H   H40       1.0  0.7104776481529468  0.3966935444218009  0.7253822752189776  1.0000
  H   H41       1.0  0.15595811911044197  0.28377330052701366  0.7983472456810137  1.0000
  H   H42       1.0  0.3440418808316122  0.783773301431485  0.20165275448567535  1.0000
  H   H43       1.0  0.8440418809802865  0.7162266996503511  0.2016527546042057  1.0000
  H   H44       1.0  0.6559581191852594  0.21622669874587971  0.7983472453697894  1.0000
  H   H45       1.0  0.2447343002969706  0.2788477038162013  0.8418225947554329  1.0000
  H   H46       1.0  0.2552656996450836  0.7788477030890947  0.15817740541125602  1.0000
  H   H47       1.0  0.7552656997937579  0.7211522963611635  0.15817740552978635  1.0000
  H   H48       1.0  0.744734300371788  0.22115229708827006  0.8418225944442086  1.0000
  H   H49       1.0  0.1794353574532611  0.8085513624180594  0.7344022420641605  1.0000
  H   H50       1.0  0.32056464304622395  0.308551363145166  0.26559775810440434  1.0000
  H   H51       1.0  0.8205646426374674  0.19144863775930532  0.2655977582210588  1.0000
  H   H52       1.0  0.6794353570445045  0.6914486370321988  0.734402242180815  1.0000
  H   H53       1.0  0.11642888312364202  0.5914368372797323  0.7417534149454409  1.0000
  H   H54       1.0  0.38357111674455513  0.0914368380068388  0.2582465847914935  1.0000
  H   H55       1.0  0.8835711168932294  0.40856316126605463  0.25824658491002384  1.0000
  H   H56       1.0  0.6164288832723163  0.9085631621705259  0.7417534150639711  1.0000
  H   H57       1.0  0.16107946655639208  0.3998332257225538  0.6659572473868901  1.0000
  H   H58       1.0  0.33892053338566214  0.8998332249954473  0.33404275277979895  1.0000
  H   H59       1.0  0.8389205335343365  0.6001667744548109  0.3340427528983293  1.0000
  H   H60       1.0  0.6610794666312093  0.10016677518191752  0.6659572470756657  1.0000
  H   H61       1.0  0.21955068827162627  0.6263354505195733  0.6550214690780587  1.0000
  H   H62       1.0  0.28044931167042786  0.12633545124667983  0.3449785310886302  1.0000
  H   H63       1.0  0.7804493118191023  0.37366454965779156  0.34497853120716054  1.0000
  H   H64       1.0  0.7195506883464436  0.8736645489306849  0.6550214687668345  1.0000
  H   H65       1.0  0.34165403826500856  0.6522016728260108  0.7078733626801216  1.0000
  H   H66       1.0  0.1583459616031885  0.1522016719215394  0.29212663705681274  1.0000
  H   H67       1.0  0.6583459617518629  0.347798327351354  0.29212663717534304  1.0000
  H   H68       1.0  0.8416540384136829  0.8477983282558255  0.707873362798652  1.0000
  H   H69       1.0  0.3810707317348375  0.42988523999167993  0.750289800374619  1.0000
  H   H70       1.0  0.11892926820721668  0.9298852392645733  0.2497101997920699  1.0000
  H   H71       1.0  0.6189292677246031  0.5701147601856849  0.24971019947896975  1.0000
  H   H72       1.0  0.8810707318835118  0.07011476091279142  0.7502898004931493  1.0000
  H   H73       1.0  0.33296404779873806  0.5647451719629082  0.8322865606275061  1.0000
  H   H74       1.0  0.1670359521433161  0.06474517105843684  0.16771343953918283  1.0000
  H   H75       1.0  0.6670359522181334  0.4352548282144566  0.16771343922795862  1.0000
  H   H76       1.0  0.8329640479474124  0.935254829118928  0.8322865607460365  1.0000
  H   H77       1.0  0.30508596367117435  0.8033507958791124  0.7926425464628482  1.0000
  H   H78       1.0  0.19491403627087983  0.30335079497464096  0.20735745370384082  1.0000
  H   H79       1.0  0.6949140363456972  0.19664920429825247  0.20735745339261658  1.0000
  H   H80       1.0  0.8050859632624178  0.6966492052027239  0.7926425465795026  1.0000
  H   H81       1.0  0.018817671933795764  0.5421398392498855  0.8924831044155488  1.0000
  H   H82       1.0  0.48118232793440135  0.04213983834541414  0.10751689532138549  1.0000
  H   H83       1.0  0.9811823280830756  0.4578601609274793  0.10751689543991584  1.0000
  H   H84       1.0  0.5188176720824702  0.9578601618319507  0.8924831045340793  1.0000
  H   H85       1.0  0.4803875523894735  0.4296232999448748  0.6075197643054123  1.0000
  H   H86       1.0  0.019612447552580736  0.9296232992177683  0.39248023586127656  1.0000
  H   H87       1.0  0.519612447701255  0.57037670023249  0.3924802359798068  1.0000
  H   H88       1.0  0.9803875524642909  0.07037670095959653  0.6075197639941882  1.0000
  C   C1        1.0  0.2000317973892553  0.12281323834291653  0.9540464387284435  1.0000
  C   C2        1.0  0.29996820255279893  0.6228132392473879  0.045953561438245555  1.0000
  C   C3        1.0  0.7999682026276163  0.8771867602028703  0.04595356112702132  1.0000
  C   C4        1.0  0.7000317975379297  0.3771867609299769  0.9540464388469738  1.0000
  C   C5        1.0  0.1627363278945764  0.22025403512339778  0.0021192993970213956  1.0000
  C   C6        1.0  0.3372636720474778  0.7202540360278691  0.9978807007696675  1.0000
  C   C7        1.0  0.8372636721222951  0.7797459634223891  0.9978807004584433  1.0000
  C   C8        1.0  0.6627363280432508  0.2797459641494956  0.0021192995155517435  1.0000
  C   C9        1.0  0.10197280761887106  0.05680236418084926  0.012863525356362997  1.0000
  C   C10       1.0  0.39802719232318307  0.5568023650853207  0.987136474810326  1.0000
  C   C11       1.0  0.8980271924718574  0.9431976359965155  0.9871364749288563  1.0000
  C   C12       1.0  0.6019728076936883  0.4431976350920442  0.012863525045138763  1.0000
  C   C13       1.0  0.10379196572389983  0.8835444336501663  0.9671950168627543  1.0000
  C   C14       1.0  0.39620803421815437  0.3835444327456949  0.032804983303934575  1.0000
  C   C15       1.0  0.8962080343668288  0.11645556652719857  0.03280498342246492  1.0000
  C   C16       1.0  0.6037919657987172  0.61645556743167  0.9671950165515301  1.0000
  C   C17       1.0  0.3932176831476325  0.09168179495899575  0.5341270435227803  1.0000
  C   C18       1.0  0.10678231679442171  0.5916817958634671  0.46587295664390876  1.0000
  C   C19       1.0  0.606782316869239  0.908318205218369  0.4658729563326845  1.0000
  C   C20       1.0  0.8932176832963069  0.4083182043138977  0.5341270436413106  1.0000
  C   C21       1.0  0.3964653816531013  0.9210491124716562  0.4879809097091718  1.0000
  C   C22       1.0  0.10353461821509584  0.4210491131987627  0.5120190900277626  1.0000
  C   C23       1.0  0.6035346183637702  0.07895088607413071  0.5120190901462929  1.0000
  C   C24       1.0  0.8964653818017756  0.5789508869786021  0.4879809098277022  1.0000
  C   C25       1.0  0.3376871848792626  0.7508088830353398  0.49871086862155306  1.0000
  C   C26       1.0  0.16231281562022254  0.2508088821308683  0.5012891315470118  1.0000
  C   C27       1.0  0.6623128151376089  0.24919111714202508  0.5012891312339117  1.0000
  C   C28       1.0  0.837687184470506  0.7491911180464965  0.4987108687382075  1.0000
  C   C29       1.0  0.3010169080946266  0.8396301972032834  0.5481612993106181  1.0000
  C   C30       1.0  0.19898309184742757  0.3396301962988121  0.4518387008560708  1.0000
  C   C31       1.0  0.698983091996102  0.16036980297408138  0.45183870097460116  1.0000
  C   C32       1.0  0.801016908169444  0.6603698038785527  0.5481612989993939  1.0000
  C   C33       1.0  0.2503725693936237  0.21503396633348232  0.7498490524368998  1.0000
  C   C34       1.0  0.24962743054843056  0.7150339672379536  0.25015094772978924  1.0000
  C   C35       1.0  0.7496274301396739  0.7849660338438825  0.2501509478464437  1.0000
  C   C36       1.0  0.750372569468441  0.28496603293941114  0.7498490521256754  1.0000
  C   C37       1.0  0.21558217477916874  0.3257530337619725  0.799529785759359  1.0000
  C   C38       1.0  0.28441782516288544  0.8257530330348659  0.20047021440733  1.0000
  C   C39       1.0  0.7844178253115598  0.6742469664153923  0.2004702145258604  1.0000
  C   C40       1.0  0.715582174853986  0.1742469655109209  0.7995297854481348  1.0000
  C   C41       1.0  0.17526779526995606  0.6312974771023526  0.738490502404534  1.0000
  C   C42       1.0  0.32473220459824115  0.13129747619788126  0.26150949733240036  1.0000
  C   C43       1.0  0.8247322047469154  0.36870252307501217  0.2615094974509308  1.0000
  C   C44       1.0  0.6752677954186304  0.8687025239794834  0.7384905025230643  1.0000
  C   C45       1.0  0.20372536752973913  0.5119873165172647  0.6872477751689324  1.0000
  C   C46       1.0  0.29627463233845797  0.01198731724437131  0.3127522245680019  1.0000
  C   C47       1.0  0.7962746324871324  0.4880126836601001  0.3127522246865322  1.0000
  C   C48       1.0  0.7037253676784134  0.9880126829329935  0.6872477752874628  1.0000
  C   C49       1.0  0.32973766647262337  0.5260838430748892  0.738571582057986  1.0000
  C   C50       1.0  0.17026233346943082  0.026083842170417877  0.26142841810870293  1.0000
  C   C51       1.0  0.6702623330606742  0.47391615710247553  0.26142841822535734  1.0000
  C   C52       1.0  0.8297376665474406  0.973916156375369  0.7385715817467617  1.0000
  C   C53       1.0  0.30096774096400913  0.6253433385607288  0.7922823048837841  1.0000
  C   C54       1.0  0.19903225897804505  0.12534333765625738  0.20771769528290485  1.0000
  C   C55       1.0  0.6990322591267194  0.374656661616636  0.20771769540143523  1.0000
  C   C56       1.0  0.8009677410388265  0.8746566625211074  0.79228230457256  1.0000
  C   C57       1.0  0.9802141172319571  0.4500955566227198  0.8608686079413409  1.0000
  C   C58       1.0  0.5197858829335887  0.9500955575271911  0.13913139203265418  1.0000
  C   C59       1.0  0.019785882784914464  0.5499044419230671  0.13913139191412385  1.0000
  C   C60       1.0  0.4802141170832827  0.04990444265017371  0.8608686078228105  1.0000
  C   C61       1.0  0.5188129310300871  0.521611635764904  0.6392490632233497  1.0000
  C   C62       1.0  0.981187068578028  0.021611634860432594  0.36075093674876946  1.0000
  C   C63       1.0  0.4811870689867845  0.47838836441246085  0.36075093663211505  1.0000
  C   C64       1.0  0.018812930881412726  0.9783883653169322  0.6392490631048193  1.0000
  N   N1        1.0  0.16096266491310762  0.9344202509037249  0.9354205243231152  1.0000
  N   N2        1.0  0.33903733495508953  0.4344202516308315  0.06457947541381916  1.0000
  N   N3        1.0  0.8390373351037638  0.06557974764206195  0.06457947553234951  1.0000
  N   N4        1.0  0.660962664504351  0.5655797485465334  0.9354205244397696  1.0000
  N   N5        1.0  0.3376586709480674  0.032250417052946186  0.5664754111350402  1.0000
  N   N6        1.0  0.16234132899398684  0.5322504179574176  0.4335245890316488  1.0000
  N   N7        1.0  0.6623413291426612  0.9677495831244186  0.43352458915017916  1.0000
  N   N8        1.0  0.8376586710228846  0.4677495822199472  0.5664754108238159  1.0000
  N   N9        1.0  0.27082482231800514  0.38157774176441567  0.7092473334908181  1.0000
  N   N10       1.0  0.22917517755019204  0.881577742668887  0.2907526662461161  1.0000
  N   N11       1.0  0.7291751776988664  0.6184222584129492  0.29075266636464653  1.0000
  N   N12       1.0  0.7708248219092486  0.11842225750847779  0.7092473336074727  1.0000
  N   N13       1.0  0.22118687991150307  0.5645994475803066  0.7927725068753233  1.0000
  N   N14       1.0  0.2788131199566941  0.06459944830741313  0.2072274928616111  1.0000
  N   N15       1.0  0.7788131201053684  0.43540055259705823  0.20722749298014145  1.0000
  N   N16       1.0  0.7211868800601774  0.9354005518699516  0.7927725069938537  1.0000
  O   O1        1.0  0.25490788064862513  0.19505828855578544  0.9340460739487921  1.0000
  O   O2        1.0  0.24509211985085996  0.695058287828679  0.06595392621977282  1.0000
  O   O3        1.0  0.7450921194421034  0.8049417116215792  0.06595392633642724  1.0000
  O   O4        1.0  0.7549078801660115  0.3049417123486859  0.9340460736356919  1.0000
  O   O5        1.0  0.06224326440002724  0.7231477602191956  0.9589630541850577  1.0000
  O   O6        1.0  0.43775673554202693  0.2231477593147242  0.041036945981631295  1.0000
  O   O7        1.0  0.9377567356907013  0.2768522399581692  0.04103694610016165  1.0000
  O   O8        1.0  0.5622432645487015  0.7768522408626406  0.958963054303588  1.0000
  O   O9        1.0  0.4326931486175133  0.2566337735953812  0.5421154468679615  1.0000
  O   O10       1.0  0.06730685132454092  0.7566337744998526  0.45788455329872735  1.0000
  O   O11       1.0  0.5673068514732152  0.7433662265819836  0.4578845534172577  1.0000
  O   O12       1.0  0.9326931486923306  0.24336622567751226  0.5421154465567374  1.0000
  O   O13       1.0  0.2484063417226016  0.7595764672395194  0.5694646587063303  1.0000
  O   O14       1.0  0.25159365821945257  0.259576466335048  0.43053534146035854  1.0000
  O   O15       1.0  0.7515936582942699  0.24042353293784546  0.4305353411491344  1.0000
  O   O16       1.0  0.748406341871276  0.740423532210739  0.5694646588248606  1.0000
  Cl  Cl1       1.0  0.9747827803704164  0.5881825098927421  0.7935384507630978  1.0000
  Cl  Cl2       1.0  0.5252172197951296  0.08818250898827079  0.20646154921089738  1.0000
  Cl  Cl3       1.0  0.025217219646455156  0.41181749028462267  0.20646154909236705  1.0000
  Cl  Cl4       1.0  0.474782780221742  0.911817491189094  0.7935384506445673  1.0000
  Cl  Cl5       1.0  0.016838130595469188  0.1826220475393748  0.8547725140401107  1.0000
  Cl  Cl6       1.0  0.483161869346585  0.6826220484438461  0.14522748612657824  1.0000
  Cl  Cl7       1.0  0.9831618694214022  0.81737795263799  0.14522748581535402  1.0000
  Cl  Cl8       1.0  0.5168381307441435  0.3173779517335186  0.854772514158641  1.0000
  Cl  Cl9       1.0  0.8913685571933965  0.43749381976238105  0.885000360709928  1.0000
  Cl  Cl10      1.0  0.6086314429721494  0.9374938190352745  0.114999639264067  1.0000
  Cl  Cl11      1.0  0.10863144282347505  0.5625061804149837  0.11499963914553667  1.0000
  Cl  Cl12      1.0  0.3913685571185792  0.0625061811420903  0.8850003610211524  1.0000
  Cl  Cl13      1.0  0.5279297714599299  0.3759832421559003  0.7055480988926534  1.0000
  Cl  Cl14      1.0  0.9720702287056159  0.8759832414287937  0.2944519010813417  1.0000
  Cl  Cl15      1.0  0.47207022855694153  0.6240167580214645  0.2944519009628114  1.0000
  Cl  Cl16      1.0  0.027929771311255635  0.12401675874857111  0.7055480987741231  1.0000
  Cl  Cl17      1.0  0.6066771919001236  0.546180796039943  0.6139072812450675  1.0000
  Cl  Cl18      1.0  0.8933228077818484  0.046180796767049545  0.3860927191568062  1.0000
  Cl  Cl19      1.0  0.393322807633174  0.45381920413742177  0.38609271903827586  1.0000
  Cl  Cl20      1.0  0.10667719230888016  0.9538192034103152  0.6139072811284131  1.0000
  Cl  Cl21      1.0  0.4790642146796015  0.7836938125864313  0.6476668985100307  1.0000
  Cl  Cl22      1.0  0.02093578518859573  0.28369381331353793  0.35233310122690364  1.0000
  Cl  Cl23      1.0  0.52093578533727  0.21630618759093342  0.352333101345434  1.0000
  Cl  Cl24      1.0  0.9790642148282759  0.7163061868638269  0.6476668986285611  1.0000
  Br  Br1       1.0  0.1849884294430262  0.7570393129832197  0.8693432006101716  1.0000
  Br  Br2       1.0  0.3150115704251709  0.2570393137103262  0.13065679912676287  1.0000
  Br  Br3       1.0  0.8150115705738453  0.24296068556256722  0.1306567992452932  1.0000
  Br  Br4       1.0  0.6849884295917005  0.7429606864670385  0.8693432007287019  1.0000
  Br  Br5       1.0  0.31066750501577955  0.1992541783542678  0.6330327851913929  1.0000
  Br  Br6       1.0  0.1893324948524176  0.6992541792587392  0.36696721454554143  1.0000
  Br  Br7       1.0  0.689332495001092  0.800745821823097  0.36696721466407184  1.0000
  Br  Br8       1.0  0.8106675051644538  0.3007458209186256  0.6330327853099232  1.0000
