data_image0
_chemical_formula_structural       H40C28N12O8Br4
_chemical_formula_sum              "H40 C28 N12 O8 Br4"
_cell_length_a       6.695820603659625
_cell_length_b       18.526058328023073
_cell_length_c       7.06537590901313
_cell_angle_alpha    90.0
_cell_angle_beta     99.50264713565133
_cell_angle_gamma    90.0

_space_group_name_H-M_alt    "P 1"
_space_group_IT_number       1

loop_
  _space_group_symop_operation_xyz
  'x, y, z'

loop_
  _atom_site_type_symbol
  _atom_site_label
  _atom_site_symmetry_multiplicity
  _atom_site_fract_x
  _atom_site_fract_y
  _atom_site_fract_z
  _atom_site_occupancy
  H   H1        1.0  0.24871099066958374  0.4545415112540346  0.042461839078831144  1.0000
  H   H2        1.0  0.7487109896223714  0.5454584883128958  0.5424618398161634  1.0000
  H   H3        1.0  0.11510714480529394  0.5259777378148749  0.9136975394021548  1.0000
  H   H4        1.0  0.6151071451367718  0.4740222622918357  0.41369754016547156  1.0000
  H   H5        1.0  0.3540012561668638  0.524530463412233  0.6905218994722659  1.0000
  H   H6        1.0  0.8540012562479606  0.4754695361546974  0.19052189880053827  1.0000
  H   H7        1.0  0.4793591426925434  0.4491894321315145  0.809972210025418  1.0000
  H   H8        1.0  0.9793591415306174  0.550810567975196  0.3099722107891085  1.0000
  H   H9        1.0  0.2257499198860908  0.03299449560057753  0.3557608415890168  1.0000
  H   H10       1.0  0.7257499203322823  0.967005504506133  0.8557608423259754  1.0000
  H   H11       1.0  0.11946876189078068  0.1068019950583379  0.21729058048706448  1.0000
  H   H12       1.0  0.6194687608435683  0.8931980045085923  0.7172905812243968  1.0000
  H   H13       1.0  0.8134604977555392  0.03994296503324052  0.1200977993469559  1.0000
  H   H14       1.0  0.31346049891746514  0.9600570350734701  0.6200977985832654  1.0000
  H   H15       1.0  0.9145705252849317  0.9657790541950255  0.2577120776024288  1.0000
  H   H16       1.0  0.4145705249534538  0.034220945911685056  0.7577120768391121  1.0000
  H   H17       1.0  0.12037752367509015  0.2522143489601444  0.8998376484901498  1.0000
  H   H18       1.0  0.6203775237561872  0.7477856511465663  0.39983764781842207  1.0000
  H   H19       1.0  0.14861944714634298  0.3078907039481764  0.11191928454710098  1.0000
  H   H20       1.0  0.6486194475925343  0.6921092961585342  0.6119192852840595  1.0000
  H   H21       1.0  0.61927320953259  0.2947422437799635  0.7917487961154923  1.0000
  H   H22       1.0  0.11927320933677954  0.705257756326747  0.2917487968135784  1.0000
  H   H23       1.0  0.3895983597173641  0.24401834648020382  0.7193691541725135  1.0000
  H   H24       1.0  0.889598359798461  0.7559816536265067  0.21936915350078579  1.0000
  H   H25       1.0  0.30952460071530635  0.14368437002994436  0.900955441034957  1.0000
  H   H26       1.0  0.809524601046784  0.8563156300767663  0.4009554417982737  1.0000
  H   H27       1.0  0.4780328398088106  0.11580328270665304  0.11421093734587877  1.0000
  H   H28       1.0  0.9780328400046211  0.8841967168602773  0.6142109366477927  1.0000
  H   H29       1.0  0.45380864838560464  0.37295549153856655  0.21176915214402456  1.0000
  H   H30       1.0  0.953808648831796  0.6270445080283638  0.711769152880983  1.0000
  H   H31       1.0  0.6558588801428128  0.3675843063550738  0.07229949235870675  1.0000
  H   H32       1.0  0.15585888006171586  0.6324156937516368  0.5722994930304345  1.0000
  H   H33       1.0  0.5119530056390289  0.1907535503466757  0.3997231376099591  1.0000
  H   H34       1.0  0.011953005557931988  0.8092464497600349  0.8997231382816869  1.0000
  H   H35       1.0  0.37179348932518225  0.2734676362503186  0.39191285285818006  1.0000
  H   H36       1.0  0.8717934882779699  0.7265323633166118  0.8919128535955124  1.0000
  H   H37       1.0  0.8478261099061429  0.2584116694029032  0.07627013043822185  1.0000
  H   H38       1.0  0.3478261095746651  0.7415883307038074  0.5762701296749051  1.0000
  H   H39       1.0  0.7892731758061966  0.18239614710101065  0.2138965105712758  1.0000
  H   H40       1.0  0.2892731754747188  0.8176038524659197  0.713896509807959  1.0000
  C   C1        1.0  0.013617882839537956  0.4214916536340873  0.8164313718504351  1.0000
  C   C2        1.0  0.5136178814272312  0.5785083464726233  0.31643137117908127  1.0000
  C   C3        1.0  0.18279947720241516  0.47266492175264696  0.8976724531883542  1.0000
  C   C4        1.0  0.6827994772835122  0.5273350783540636  0.3976724525166265  1.0000
  C   C5        1.0  0.32950066180706405  0.4714634330384324  0.7525756673532354  1.0000
  C   C6        1.0  0.8295006621385419  0.5285365670682781  0.2525756681165523  1.0000
  C   C7        1.0  0.2304998108663643  0.4222186053559022  0.5924890314385665  1.0000
  C   C8        1.0  0.7304998109474613  0.5777813947508084  0.09248903076683879  1.0000
  C   C9        1.0  0.0587210536141587  0.1073823154810442  0.5024294645788269  1.0000
  C   C10       1.0  0.5587210539456365  0.8926176846256664  0.0024294653421436346  1.0000
  C   C11       1.0  0.08924128821207579  0.06658136221746563  0.3235151607238094  1.0000
  C   C12       1.0  0.5892412884078863  0.933418637889245  0.8235151600257233  1.0000
  C   C13       1.0  0.892925668553582  0.024394719157090475  0.26296305416703825  1.0000
  C   C14       1.0  0.3929256682221042  0.9756052809496201  0.7629630534037215  1.0000
  C   C15       1.0  0.7606181520401364  0.04296442696588106  0.41072021988719026  1.0000
  C   C16       1.0  0.26061815170865854  0.9570355731408294  0.9107202191238735  1.0000
  C   C17       1.0  0.2266415701043053  0.2718994462184404  0.024420417465181345  1.0000
  C   C18       1.0  0.7266415703001158  0.7281005538882702  0.5244204167670953  1.0000
  C   C19       1.0  0.495106206138108  0.2654081593040462  0.8414597043140728  1.0000
  C   C20       1.0  0.9951062064695859  0.7345918408026644  0.34145970507738954  1.0000
  C   C21       1.0  0.41452517836284203  0.16217215161497348  0.027470270923331652  1.0000
  C   C22       1.0  0.9145251788090334  0.8378278479519569  0.5274702716602901  1.0000
  C   C23       1.0  0.5313448262943731  0.33842726169744525  0.12109921874530606  1.0000
  C   C24       1.0  0.03134482596289514  0.6615727384092652  0.6210992179819892  1.0000
  C   C25       1.0  0.4500710451108564  0.23612093962713943  0.30862936696988597  1.0000
  C   C26       1.0  0.9500710440636441  0.7638790604795711  0.8086293677072182  1.0000
  C   C27       1.0  0.7256202490933588  0.22836907803536366  0.12623660537125547  1.0000
  C   C28       1.0  0.22562024876188094  0.771630922071347  0.6262366046079386  1.0000
  N   N1        1.0  0.049465362440532505  0.3975001530066881  0.6398071789683161  1.0000
  N   N2        1.0  0.5494653625216295  0.6024998471000225  0.1398071782965883  1.0000
  N   N3        1.0  0.8687297067688581  0.08990668659833259  0.5431987919022662  1.0000
  N   N4        1.0  0.36872970632266683  0.9100933129685977  0.04319879116530772  1.0000
  N   N5        1.0  0.30812134580619904  0.20970349014412112  0.14301449026738305  1.0000
  N   N6        1.0  0.8081213445086057  0.7902965099625894  0.6430144895696708  1.0000
  N   N7        1.0  0.38891435790859735  0.31292682001496397  0.9558766226045226  1.0000
  N   N8        1.0  0.8889143579896943  0.6870731800917466  0.4558766219327947  1.0000
  N   N9        1.0  0.5831737845161116  0.20194903652768745  0.9587171600481101  1.0000
  N   N10       1.0  0.08317378406992026  0.7980509635790232  0.4587171593111517  1.0000
  N   N11       1.0  0.6196281513912123  0.2764710463127729  0.24325626874632472  1.0000
  N   N12       1.0  0.11962815131011528  0.7235289532541573  0.7432562694180526  1.0000
  O   O1        1.0  0.8670438352396771  0.4035546308677631  0.8905355974743279  1.0000
  O   O2        1.0  0.36704383479348585  0.5964453686991672  0.39053559673736943  1.0000
  O   O3        1.0  0.29489491856632016  0.40595913641401943  0.44489446582792436  1.0000
  O   O4        1.0  0.794894917268727  0.594040863692691  0.944894465130212  1.0000
  O   O5        1.0  0.17685765780393634  0.1500419976436845  0.5958519023797825  1.0000
  O   O6        1.0  0.6768576578850333  0.849958002463026  0.09585190170805466  1.0000
  O   O7        1.0  0.5866918095166014  0.02218920737058191  0.41294140449813793  1.0000
  O   O8        1.0  0.08669181092890813  0.9778107921963485  0.9129414051694918  1.0000
  Br  Br1       1.0  0.8564641210425576  0.3353515302606178  0.4701818181175916  1.0000
  Br  Br2       1.0  0.35646412096146063  0.6646484698460928  0.9701818187893193  1.0000
  Br  Br3       1.0  0.7460343506080122  0.1375957445920455  0.7480549717632774  1.0000
  Br  Br4       1.0  0.2460343501618208  0.8624042549748848  0.2480549710263189  1.0000
