data_image0
_chemical_formula_structural       H44C44N20O16I8
_chemical_formula_sum              "H44 C44 N20 O16 I8"
_cell_length_a       30.665119449046998
_cell_length_b       6.102118848551716
_cell_length_c       8.224610992222829
_cell_angle_alpha    90.0
_cell_angle_beta     95.5080910540209
_cell_angle_gamma    90.0

_space_group_name_H-M_alt    "P 1"
_space_group_IT_number       1

loop_
  _space_group_symop_operation_xyz
  'x, y, z'

loop_
  _atom_site_type_symbol
  _atom_site_label
  _atom_site_symmetry_multiplicity
  _atom_site_fract_x
  _atom_site_fract_y
  _atom_site_fract_z
  _atom_site_occupancy
  H   H1        1.0  0.8197065675008183  0.9719928400620584  0.6255339759161298  1.0000
  H   H2        1.0  0.180293432466089  0.9719928400620584  0.8744660243779431  1.0000
  H   H3        1.0  0.3197065674075579  0.47199284076277537  0.625533976331251  1.0000
  H   H4        1.0  0.6802934325593494  0.47199284076277537  0.8744660239628219  1.0000
  H   H5        1.0  0.1802934327567272  0.028007160175282774  0.3744660240044027  1.0000
  H   H6        1.0  0.819706567465306  0.028007160175282774  0.12553397554074242  1.0000
  H   H7        1.0  0.6802934325547905  0.5280071594745659  0.3744660248089363  1.0000
  H   H8        1.0  0.31970656737204556  0.5280071594745659  0.12553397595586355  1.0000
  H   H9        1.0  0.8154498669079427  0.1369699805500136  0.8012285323313834  1.0000
  H   H10       1.0  0.18455013338511503  0.1369699805500136  0.6987714679645366  1.0000
  H   H11       1.0  0.3154498667837289  0.6369699814880717  0.801228531525003  1.0000
  H   H12       1.0  0.6845501331522248  0.6369699814880717  0.6987714675475685  1.0000
  H   H13       1.0  0.18455013334960266  0.8630300196873275  0.1987714675891491  1.0000
  H   H14       1.0  0.8154498668724305  0.8630300196873275  0.301228531955996  1.0000
  H   H15       1.0  0.6845501331476659  0.36303001874926943  0.19877146839368268  1.0000
  H   H16       1.0  0.3154498667791701  0.36303001874926943  0.3012285323711172  1.0000
  H   H17       1.0  0.7627288711442872  0.8801149589662051  0.8933154606656618  1.0000
  H   H18       1.0  0.23727112882261994  0.8801149589662051  0.6066845396284111  1.0000
  H   H19       1.0  0.26272887102007336  0.380114958028147  0.8933154598592813  1.0000
  H   H20       1.0  0.7372711289468338  0.380114958028147  0.6066845404347917  1.0000
  H   H21       1.0  0.23727112881806112  0.1198850412711361  0.10668454047452537  1.0000
  H   H22       1.0  0.7627288711087749  0.1198850412711361  0.3933154602902744  1.0000
  H   H23       1.0  0.7372711289113215  0.6198850405704192  0.10668454005940424  1.0000
  H   H24       1.0  0.26272887134166517  0.6198850405704192  0.39331546070724255  1.0000
  H   H25       1.0  0.7650541040862154  0.734757737644546  0.7083635350604662  1.0000
  H   H26       1.0  0.23494589588069176  0.734757737644546  0.7916364652336065  1.0000
  H   H27       1.0  0.2650541039929551  0.23475773670648775  0.7083635354755873  1.0000
  H   H28       1.0  0.7349458959739521  0.23475773670648775  0.7916364648184855  1.0000
  H   H29       1.0  0.23494589584517944  0.2652422625927953  0.2916364648582193  1.0000
  H   H30       1.0  0.7650541040507032  0.2652422625927953  0.20836353468507887  1.0000
  H   H31       1.0  0.7349458959693932  0.7652422635308535  0.29163646566459983  1.0000
  H   H32       1.0  0.2650541039574427  0.7652422635308535  0.20836353510019998  1.0000
  H   H33       1.0  0.945901331569322  0.9654444343374659  0.07445944802486819  1.0000
  H   H34       1.0  0.054098668357514125  0.9654444343374659  0.42554055273993163  1.0000
  H   H35       1.0  0.4459013314451081  0.46544443503818284  0.07445944721848764  1.0000
  H   H36       1.0  0.5540986684507745  0.46544443503818284  0.42554055232481053  1.0000
  H   H37       1.0  0.05409866836207295  0.034555565899875296  0.9255405518938173  1.0000
  H   H38       1.0  0.9459013315738808  0.034555565899875296  0.574459447178754  1.0000
  H   H39       1.0  0.5540986684862869  0.5345555651991584  0.9255405527001979  1.0000
  H   H40       1.0  0.4459013314806204  0.5345555651991584  0.574459447593875  1.0000
  H   H41       1.0  0.9999999998392041  0.5567480942797975  0.24999999957601937  1.0000
  H   H42       1.0  0.49999999996341804  0.056748093341739386  0.25000000038239995  1.0000
  H   H43       1.0  0.9999999998747164  0.4432519059575437  0.7499999999514066  1.0000
  H   H44       1.0  0.49999999996797684  0.9432519068956018  0.7499999995362856  1.0000
  C   C1        1.0  0.8629586927808411  0.8789925766970322  0.8315605740014508  1.0000
  C   C2        1.0  0.13704130715511254  0.8789925766970322  0.6684394250711205  1.0000
  C   C3        1.0  0.3629586930137314  0.3789925757589741  0.8315605744184189  1.0000
  C   C4        1.0  0.6370413072793264  0.3789925757589741  0.6684394258775009  1.0000
  C   C5        1.0  0.13704130715055368  0.12100742354030897  0.16843942591723476  1.0000
  C   C6        1.0  0.8629586927762823  0.12100742354030897  0.3315605748475651  1.0000
  C   C7        1.0  0.637041307243814  0.6210074244783671  0.1684394255021136  1.0000
  C   C8        1.0  0.3629586929782191  0.6210074244783671  0.3315605740430315  1.0000
  C   C9        1.0  0.8192507564637508  0.9680148185579768  0.7587181797540117  1.0000
  C   C10       1.0  0.1807492435031564  0.9680148185579768  0.7412818205400612  1.0000
  C   C11       1.0  0.3192507566656875  0.4680148192586938  0.7587181789494781  1.0000
  C   C12       1.0  0.6807492433012197  0.4680148192586938  0.7412818213445947  1.0000
  C   C13       1.0  0.18074924346764404  0.031985180040589284  0.24128182016467378  1.0000
  C   C14       1.0  0.8192507567543891  0.031985180040589284  0.25871817938047137  1.0000
  C   C15       1.0  0.6807492432657073  0.5319851809786474  0.24128182096920736  1.0000
  C   C16       1.0  0.3192507566611287  0.5319851809786474  0.2587181797955925  1.0000
  C   C17       1.0  0.7851785552507363  0.8066403084181563  0.8121269042401819  1.0000
  C   C18       1.0  0.2148214447161708  0.8066403084181563  0.6878730960538909  1.0000
  C   C19       1.0  0.28517855515747603  0.3066403091188731  0.8121269046553032  1.0000
  C   C20       1.0  0.7148214448094311  0.3066403091188731  0.6878730956387697  1.0000
  C   C21       1.0  0.21482144500680903  0.19335969181918505  0.18787309568035054  1.0000
  C   C22       1.0  0.7851785552461775  0.19335969181918505  0.3121269050862963  1.0000
  C   C23       1.0  0.7148214447739188  0.6933596911184682  0.18787309526338242  1.0000
  C   C24       1.0  0.2851785551219637  0.6933596911184682  0.3121269042799157  1.0000
  C   C25       1.0  0.8115593021746903  0.6272962449606342  0.9038430878347603  1.0000
  C   C26       1.0  0.18844069811836744  0.6272962449606342  0.5961569124611596  1.0000
  C   C27       1.0  0.31155930208142996  0.12729624402257605  0.9038430882498814  1.0000
  C   C28       1.0  0.6884406978854772  0.12729624402257605  0.5961569120441915  1.0000
  C   C29       1.0  0.1884406980828551  0.37270375527670707  0.09615691208577218  1.0000
  C   C30       1.0  0.8115593021701315  0.37270375527670707  0.4038430886808746  1.0000
  C   C31       1.0  0.6884406978499649  0.8727037562147651  0.09615691166880407  1.0000
  C   C32       1.0  0.31155930204591764  0.8727037562147651  0.4038430878744941  1.0000
  C   C33       1.0  0.9705487541107211  0.05132359558587279  0.15557224562592398  1.0000
  C   C34       1.0  0.029451245785161406  0.05132359558587279  0.3444277539173741  1.0000
  C   C35       1.0  0.4705487543436113  0.5513235948851558  0.15557224604289213  1.0000
  C   C36       1.0  0.5294512458784217  0.5513235948851558  0.344427753502253  1.0000
  C   C37       1.0  0.029451245820673776  0.9486764046514685  0.8444277542927616  1.0000
  C   C38       1.0  0.9705487541462335  0.9486764046514685  0.6555722460013114  1.0000
  C   C39       1.0  0.5294512459139341  0.4486764053521853  0.8444277538776405  1.0000
  C   C40       1.0  0.4705487543791237  0.4486764053521853  0.6555722464182795  1.0000
  C   C41       1.0  0.9999999998392041  0.37689182021517764  0.24999999957601937  1.0000
  C   C42       1.0  0.49999999996341804  0.8768918211532358  0.25000000038239995  1.0000
  C   C43       1.0  0.9999999998747164  0.6231081800221636  0.7499999999514066  1.0000
  C   C44       1.0  0.49999999996797684  0.12310817908410547  0.7499999995362856  1.0000
  N   N1        1.0  0.8556487211858014  0.6822514413969656  0.9094146348606474  1.0000
  N   N2        1.0  0.1443512787811058  0.6822514413969656  0.5905853654334255  1.0000
  N   N3        1.0  0.35564872138773806  0.1822514420976825  0.9094146340561138  1.0000
  N   N4        1.0  0.6443512785482157  0.1822514420976825  0.5905853650164574  1.0000
  N   N5        1.0  0.14435127874559345  0.3177485572016006  0.09058536505803809  1.0000
  N   N6        1.0  0.8556487214764397  0.3177485572016006  0.409414634487107  1.0000
  N   N7        1.0  0.6443512785436567  0.8177485581396586  0.09058536586257165  1.0000
  N   N8        1.0  0.3556487213831793  0.8177485581396586  0.4094146349022281  1.0000
  N   N9        1.0  0.9999999998392041  0.9347481000560618  0.24999999957601937  1.0000
  N   N10       1.0  0.49999999996341804  0.4347481007567787  0.25000000038239995  1.0000
  N   N11       1.0  0.9999999998747164  0.06525189854250434  0.7499999999514066  1.0000
  N   N12       1.0  0.49999999996797684  0.5652518994805624  0.7499999995362856  1.0000
  N   N13       1.0  0.9695433210216907  0.27151650780994424  0.1523816721551984  1.0000
  N   N14       1.0  0.03045667887419182  0.27151650780994424  0.3476183273880998  1.0000
  N   N15       1.0  0.4695433209284304  0.7715165071092274  0.15238167257031954  1.0000
  N   N16       1.0  0.5304566789984058  0.7715165071092274  0.3476183281944803  1.0000
  N   N17       1.0  0.03045667890970419  0.728483492427397  0.8476183277634871  1.0000
  N   N18       1.0  0.9695433210572031  0.728483492427397  0.6523816725305858  1.0000
  N   N19       1.0  0.5304566790029646  0.22848349312811386  0.847618327348366  1.0000
  N   N20       1.0  0.46954332093298917  0.22848349312811386  0.6523816717242051  1.0000
  O   O1        1.0  0.899259502951358  0.9628457288068839  0.82613735621732  1.0000
  O   O2        1.0  0.10074049698459567  0.9628457288068839  0.6738626428552511  1.0000
  O   O3        1.0  0.39925950285809764  0.46284572950760083  0.8261373566324411  1.0000
  O   O4        1.0  0.6007404971088097  0.46284572950760083  0.6738626436616317  1.0000
  O   O5        1.0  0.10074049730618743  0.0371542714304573  0.17386264370321242  1.0000
  O   O6        1.0  0.8992595029467992  0.0371542714304573  0.3261373570634344  1.0000
  O   O7        1.0  0.6007404970732972  0.5371542707297404  0.1738626432862443  1.0000
  O   O8        1.0  0.3992595028225853  0.5371542707297404  0.32613735625705387  1.0000
  O   O9        1.0  0.797365100199603  0.46137193651483827  0.9657363503314759  1.0000
  O   O10       1.0  0.20263489973635054  0.46137193651483827  0.5342636487410953  1.0000
  O   O11       1.0  0.29736510043249337  0.9613719358141213  0.965736350748444  1.0000
  O   O12       1.0  0.7026348995344138  0.9613719358141213  0.5342636495456289  1.0000
  O   O13       1.0  0.20263489973179175  0.5386280637225029  0.034263649587209614  1.0000
  O   O14       1.0  0.7973651005211949  0.5386280637225029  0.4657363511794372  1.0000
  O   O15       1.0  0.7026348994989015  0.038628064423219886  0.0342636491702415  1.0000
  O   O16       1.0  0.297365100396981  0.038628064423219886  0.46573635037305666  1.0000
  I   I1        1.0  0.9076664737134205  0.4863482822371397  0.017689871983390913  1.0000
  I   I2        1.0  0.09233352650861261  0.4863482822371397  0.48231012756175423  1.0000
  I   I3        1.0  0.4076664736201601  0.9863482831751978  0.01768987239851204  1.0000
  I   I4        1.0  0.5923335262757224  0.9863482831751978  0.4823101271447861  1.0000
  I   I5        1.0  0.09233352654412497  0.5136517163614265  0.9823101279371417  1.0000
  I   I6        1.0  0.9076664734227824  0.5136517163614265  0.5176898723569313  1.0000
  I   I7        1.0  0.5923335263112347  0.013651717062143352  0.9823101275201733  1.0000
  I   I8        1.0  0.4076664736556725  0.013651717062143352  0.5176898727738994  1.0000
