data_image0
_chemical_formula_structural       H140B40C56N16O4P4
_chemical_formula_sum              "H140 B40 C56 N16 O4 P4"
_cell_length_a       10.155045185787852
_cell_length_b       20.993417859100067
_cell_length_c       11.870412251383206
_cell_angle_alpha    90.0
_cell_angle_beta     114.75201361885809
_cell_angle_gamma    90.0

_space_group_name_H-M_alt    "P 1"
_space_group_IT_number       1

loop_
  _space_group_symop_operation_xyz
  'x, y, z'

loop_
  _atom_site_type_symbol
  _atom_site_label
  _atom_site_symmetry_multiplicity
  _atom_site_fract_x
  _atom_site_fract_y
  _atom_site_fract_z
  _atom_site_occupancy
  H   H1        1.0  0.6977839262284655  0.7735505875695529  0.33101029767458134  1.0000
  H   H2        1.0  0.3022160740623461  0.2735505875481191  0.668989702431355  1.0000
  H   H3        1.0  0.5644533417790332  0.7336932024779064  0.3659883062226692  1.0000
  H   H4        1.0  0.4355466580551419  0.23369320245647265  0.6340116929556147  1.0000
  H   H5        1.0  0.7373426715774241  0.6981966837594462  0.405772776156356  1.0000
  H   H6        1.0  0.2626573287133876  0.19819668373801252  0.5942272239495805  1.0000
  H   H7        1.0  0.9415344557517883  0.7292928799282383  0.6072381507972704  1.0000
  H   H8        1.0  0.05846554453902334  0.22929287990680466  0.3927618493086661  1.0000
  H   H9        1.0  0.9319088182847448  0.8077425507276076  0.6623203413383414  1.0000
  H   H10       1.0  0.06809118200606684  0.30774255070617396  0.33767965876759504  1.0000
  H   H11       1.0  0.9368561310221699  0.7969934325271055  0.5153133410664902  1.0000
  H   H12       1.0  0.0631438692686417  0.2969934325056718  0.4846866590394462  1.0000
  H   H13       1.0  0.7796066934798443  0.7564973834461083  0.9001801707494231  1.0000
  H   H14       1.0  0.2203933068109672  0.25649738342467454  0.0998198293565132  1.0000
  H   H15       1.0  0.8610883219087049  0.7994003383648843  0.817166999827453  1.0000
  H   H16       1.0  0.13891167838210675  0.2994003383434507  0.18283300027848343  1.0000
  H   H17       1.0  0.8391298413389006  0.7147986969399213  0.7997568822436332  1.0000
  H   H18       1.0  0.16087015895191112  0.2147986969184876  0.20024311786230323  1.0000
  H   H19       1.0  0.5297314009380384  0.7188240238574899  0.7926623783911028  1.0000
  H   H20       1.0  0.4702685979126198  0.21882402383605615  0.20733762078965712  1.0000
  H   H21       1.0  0.5777710165714914  0.6723023099300623  0.6903364417780591  1.0000
  H   H22       1.0  0.42222898371932027  0.1723023099086287  0.30966355832787734  1.0000
  H   H23       1.0  0.43573993086468216  0.7301543332714424  0.6288626783862665  1.0000
  H   H24       1.0  0.5642600694261295  0.23015433325000867  0.37113732171966984  1.0000
  H   H25       1.0  0.7700291798455392  0.9419443052446195  0.7766879436691058  1.0000
  H   H26       1.0  0.22997082044527234  0.44194430522318584  0.22331205643683077  1.0000
  H   H27       1.0  0.6560770818201775  0.8795568346197603  0.7871031873680074  1.0000
  H   H28       1.0  0.3439229180139976  0.3795568345983266  0.2128968118102764  1.0000
  H   H29       1.0  0.5805006643732749  0.9437726154443977  0.6808763788703966  1.0000
  H   H30       1.0  0.41949933493402  0.4437726154229641  0.3191236212380159  1.0000
  H   H31       1.0  0.8326500959029203  0.944437993044832  0.5945603195253655  1.0000
  H   H32       1.0  0.16734990393125485  0.44443799302339826  0.40543967965291833  1.0000
  H   H33       1.0  0.6440549207096152  0.9501142545664092  0.49620450279288425  1.0000
  H   H34       1.0  0.3559450785976795  0.4501142545449754  0.5037954973155282  1.0000
  H   H35       1.0  0.7492146392510082  0.8878292184290847  0.47399986595398813  1.0000
  H   H36       1.0  0.2507853600562866  0.38782921840765094  0.5260001341544244  1.0000
  H   H37       1.0  0.46698507805262696  0.9039256831528372  0.19488581620917336  1.0000
  H   H38       1.0  0.5330149212546679  0.4039256831314035  0.8051141838992392  1.0000
  H   H39       1.0  0.5830979549839038  0.9434004654661314  0.13935343270594694  1.0000
  H   H40       1.0  0.4169020448502713  0.44340046544469774  0.860646566472337  1.0000
  H   H41       1.0  0.6499696526165536  0.8781886133900024  0.24292032203907238  1.0000
  H   H42       1.0  0.3500303466907412  0.3781886133685687  0.7570796780693402  1.0000
  H   H43       1.0  0.659348276033173  0.8867793936626783  0.99395682318479  1.0000
  H   H44       1.0  0.34065172425763846  0.38677939364124464  0.006043176921146374  1.0000
  H   H45       1.0  0.5761681285436675  0.8125469646956877  0.9299418103817068  1.0000
  H   H46       1.0  0.42383187174714415  0.3125469646742539  0.07005818972422966  1.0000
  H   H47       1.0  0.7130460091529768  0.8161257268822095  0.08470262306811448  1.0000
  H   H48       1.0  0.2869539906811983  0.3161257268607758  0.9152973761101695  1.0000
  H   H49       1.0  0.2093790617482077  0.8787022705787638  0.6698808513582823  1.0000
  H   H50       1.0  0.790620937559087  0.37870227055733013  0.33011914875013015  1.0000
  H   H51       1.0  0.3534572841839086  0.8259275038668373  0.7545592843082559  1.0000
  H   H52       1.0  0.6465427156502666  0.32592750384540353  0.24544071487002808  1.0000
  H   H53       1.0  0.37627545917587196  0.9096619225212066  0.7809629571619092  1.0000
  H   H54       1.0  0.6237245401314228  0.4096619224997729  0.21903704294650325  1.0000
  H   H55       1.0  0.04686519643261949  0.9139517351950854  0.7564166060608014  1.0000
  H   H56       1.0  0.9531348034015557  0.41395173517365164  0.24358339311748242  1.0000
  H   H57       1.0  0.18776667362132096  0.961683130660338  0.8647606716914786  1.0000
  H   H58       1.0  0.8122333266694907  0.4616831306389042  0.13523932841445782  1.0000
  H   H59       1.0  0.09654130953004733  0.9049917520583489  0.9187827054906077  1.0000
  H   H60       1.0  0.9034586907607643  0.4049917520369152  0.08121729461532873  1.0000
  H   H61       1.0  0.2893884529758689  0.6946358538602025  0.7872956315538305  1.0000
  H   H62       1.0  0.7106115463314258  0.19463585383876883  0.21270436855458194  1.0000
  H   H63       1.0  0.1655540245465278  0.7564237737075525  0.780196831433842  1.0000
  H   H64       1.0  0.8344459757442837  0.2564237736861188  0.21980316867209435  1.0000
  H   H65       1.0  0.1839744902443247  0.6879664782044749  0.8747119530360258  1.0000
  H   H66       1.0  0.8160255090629701  0.1879664781830412  0.12528804707238686  1.0000
  H   H67       1.0  0.5210207538484479  0.6841909005195081  0.9873752218777323  1.0000
  H   H68       1.0  0.47897924545884696  0.1841909004980745  0.01262477823068023  1.0000
  H   H69       1.0  0.4078244037624496  0.6757362457705168  0.06796084912601262  1.0000
  H   H70       1.0  0.5921755965283619  0.17573624574908314  0.9320391509799237  1.0000
  H   H71       1.0  0.5421124507215087  0.7366344391271465  0.11137682317401186  1.0000
  H   H72       1.0  0.45788754956930294  0.2366344391057129  0.8886231769319246  1.0000
  H   H73       1.0  0.7370519330501022  0.373029656845772  0.7881688163735846  1.0000
  H   H74       1.0  0.26294806724070935  0.8730296568672058  0.21183118373235185  1.0000
  H   H75       1.0  0.6476833412219778  0.36796033698969777  0.6248269104857485  1.0000
  H   H76       1.0  0.3523166580853169  0.8679603370111315  0.37517308962266405  1.0000
  H   H77       1.0  0.911814600154731  0.4651937233634735  0.9137376091488983  1.0000
  H   H78       1.0  0.08818540013608064  0.9651937233849072  0.08626239095703801  1.0000
  H   H79       1.0  0.04814385341997911  0.3754149082772484  0.7999673797570745  1.0000
  H   H80       1.0  0.9518561458873157  0.8754149082986822  0.20003262035133798  1.0000
  H   H81       1.0  0.8561361255887329  0.38512420484667986  0.521149909850161  1.0000
  H   H82       1.0  0.14386387470207873  0.8851242048681135  0.47885009025577546  1.0000
  H   H83       1.0  0.6305543140832589  0.4802034998617491  0.4985119351852056  1.0000
  H   H84       1.0  0.3694456862075527  0.9802034998831829  0.5014880649207308  1.0000
  H   H85       1.0  0.9576785819276734  0.5999570529455427  0.8498417581110094  1.0000
  H   H86       1.0  0.042321418363138255  0.09995705292410897  0.15015824199492708  1.0000
  H   H87       1.0  0.19345612088152656  0.50236861004643  0.8863744660043072  1.0000
  H   H88       1.0  0.8065438794092851  0.002368610024996263  0.11362553410162927  1.0000
  H   H89       1.0  0.15593083572020647  0.4536069797644764  0.6324953692531996  1.0000
  H   H90       1.0  0.8440691635870884  0.95360697978591  0.36750463085521284  1.0000
  H   H91       1.0  0.887729853835969  0.518268325006627  0.43665751608961234  1.0000
  H   H92       1.0  0.11227014645484265  0.018268324985193252  0.5633424840163241  1.0000
  H   H93       1.0  0.7699694287430009  0.6118179024590041  0.572135593903296  1.0000
  H   H94       1.0  0.23003057154781076  0.11181790243757044  0.42786440620264043  1.0000
  H   H95       1.0  0.10101215773547086  0.593556212410577  0.6643992740403108  1.0000
  H   H96       1.0  0.898987841571824  0.09355621238914331  0.3356007260681017  1.0000
  H   H97       1.0  0.4978911714208599  0.5381899381906713  0.5496042336154403  1.0000
  H   H98       1.0  0.5021088288699516  0.0381899381692376  0.45039576649049606  1.0000
  H   H99       1.0  0.2920507441998877  0.564179815287482  0.6020452895021376  1.0000
  H   H100      1.0  0.7079492560909239  0.06417981574238801  0.3979547106037987  1.0000
  H   H101      1.0  0.33404208270943714  0.5816449275650936  0.8213176840539518  1.0000
  H   H102      1.0  0.6659579175813743  0.08164492754365987  0.1786823160519846  1.0000
  H   H103      1.0  0.5863770513669417  0.5750788109410562  0.9886779671559048  1.0000
  H   H104      1.0  0.41362294748371636  0.0750788109196225  0.011322032024854899  1.0000
  H   H105      1.0  0.7897631850409317  0.5470881705439622  0.9367504761298145  1.0000
  H   H106      1.0  0.2102368152498798  0.04708817052252854  0.0632495239761218  1.0000
  H   H107      1.0  0.36012969971925807  0.7614552745669618  0.3404309400980671  1.0000
  H   H108      1.0  0.6398703005715536  0.2614552745455281  0.6595690600078693  1.0000
  H   H109      1.0  0.28456393659606427  0.7708589782099313  0.179849141808883  1.0000
  H   H110      1.0  0.7154360636947474  0.2708589781884976  0.8201508582970535  1.0000
  H   H111      1.0  0.3098669033840231  0.6612438666809386  0.4559414487072154  1.0000
  H   H112      1.0  0.6901330969067885  0.1612438666595049  0.5440585513987211  1.0000
  H   H113      1.0  0.11417720964165824  0.7738961387346222  0.39045968202668657  1.0000
  H   H114      1.0  0.8858227906491533  0.27389613871318846  0.6095403180792499  1.0000
  H   H115      1.0  0.9843649124621463  0.7805808477677999  0.10781739025737086  1.0000
  H   H116      1.0  0.015635087828665326  0.28058084774636616  0.8921826098485656  1.0000
  H   H117      1.0  0.11636624505356358  0.6711229140753152  0.03176175001460327  1.0000
  H   H118      1.0  0.8836337542537311  0.17112291405388141  0.9682382500938093  1.0000
  H   H119      1.0  0.13465705087378166  0.541850815162483  0.3712058732267887  1.0000
  H   H120      1.0  0.8653429479768766  0.041850815141049304  0.6287941259539712  1.0000
  H   H121      1.0  0.010508275298090486  0.6512614040154246  0.4646776499881047  1.0000
  H   H122      1.0  0.9894917249927212  0.15126140399399096  0.5353223501178318  1.0000
  H   H123      1.0  0.7980669066640553  0.7261087299985487  0.23536543948835228  1.0000
  H   H124      1.0  0.20193309362675615  0.22610872997711498  0.7646345606175842  1.0000
  H   H125      1.0  0.7982130049043015  0.6621593321915568  0.006175970528206036  1.0000
  H   H126      1.0  0.20178699394635677  0.162159332170123  0.9938240286525538  1.0000
  H   H127      1.0  0.0011021036152103925  0.5477973856941549  0.0894312966785793  1.0000
  H   H128      1.0  0.9988978966756012  0.04779738567272125  0.9105687034273572  1.0000
  H   H129      1.0  0.8114968825633563  0.5812716167467886  0.22557834760387535  1.0000
  H   H130      1.0  0.18850311772745523  0.08127161672535484  0.7744216525020611  1.0000
  H   H131      1.0  0.1847454558555229  0.548127529172769  0.05070391872224628  1.0000
  H   H132      1.0  0.8152545444352889  0.04812752915133523  0.9492960813836903  1.0000
  H   H133      1.0  0.3947445609275335  0.49989584213658256  0.030281545399589875  1.0000
  H   H134      1.0  0.6052554393632782  0.9998958421580163  0.9697184547063467  1.0000
  H   H135      1.0  0.6448837309695035  0.5191174816384648  0.19267437121431624  1.0000
  H   H136      1.0  0.3551162693213081  0.0191174816170312  0.8073256288916201  1.0000
  H   H137      1.0  0.6806304021498435  0.5866904437697875  0.373413532498196  1.0000
  H   H138      1.0  0.3193695981409681  0.08669044374835377  0.6265864676077405  1.0000
  H   H139      1.0  0.4694455097436213  0.6312154223260934  0.4002825836030073  1.0000
  H   H140      1.0  0.5305544895636735  0.13121542230465968  0.5997174165054052  1.0000
  B   B1        1.0  0.918546248863349  0.4779686131789376  0.818773995406679  1.0000
  B   B2        1.0  0.08145375142746263  0.9779686132003713  0.18122600469925748  1.0000
  B   B3        1.0  4.851945183431291e-05  0.4244336943990102  0.7496017242091635  1.0000
  B   B4        1.0  0.9999514808389772  0.9244336939441042  0.25039827589677294  1.0000
  B   B5        1.0  0.887415926209773  0.43030381668338996  0.5876608987362162  1.0000
  B   B6        1.0  0.11258407408103832  0.9303038167048236  0.41233910136972013  1.0000
  B   B7        1.0  0.7515206642999513  0.48811129844481965  0.5729853883871041  1.0000
  B   B8        1.0  0.2484793359908603  0.9881112984662535  0.4270146117188324  1.0000
  B   B9        1.0  0.9445079011843678  0.5579331783234511  0.7785025894810736  1.0000
  B   B10       1.0  0.055492099106443836  0.05793317830201737  0.2214974106248627  1.0000
  B   B11       1.0  0.0783638355467204  0.49923681414538756  0.8007507462707695  1.0000
  B   B12       1.0  0.9216361647440912  0.9992368141668213  0.19924925383516698  1.0000
  B   B13       1.0  0.05670869243886451  0.4709160698058812  0.6533241593476623  1.0000
  B   B14       1.0  0.9432913073953106  0.9709160698273149  0.3466758398306216  1.0000
  B   B15       1.0  0.9009981859995357  0.5088210095989537  0.5399808209772107  1.0000
  B   B16       1.0  0.0990018142912758  0.008821009577519948  0.4600191791287257  1.0000
  B   B17       1.0  0.8362891532960699  0.5645669237637931  0.6171390303206067  1.0000
  B   B18       1.0  0.16371084699474164  0.06456692374235941  0.38286096978532974  1.0000
  B   B19       1.0  0.025082181063714983  0.5519714573288038  0.6718401596032266  1.0000
  B   B20       1.0  0.9749178192270965  0.05197145730737009  0.32815984050270974  1.0000
  B   B21       1.0  0.19705631867221754  0.6602466474505824  0.36759597665189064  1.0000
  B   B22       1.0  0.8029436816185941  0.1602466474291486  0.6324040234540458  1.0000
  B   B23       1.0  0.07809585829904453  0.7274719782410255  0.3273472721021358  1.0000
  B   B24       1.0  0.9219041410082502  0.22747197821959178  0.6726527280062766  1.0000
  B   B25       1.0  0.00260104890978353  0.7314729513347702  0.16216964598502223  1.0000
  B   B26       1.0  0.9973989513810281  0.23147295131333653  0.8378303541209142  1.0000
  B   B27       1.0  0.07966634973847567  0.6665192506485851  0.11418450164663595  1.0000
  B   B28       1.0  0.9203336495688191  0.1665192506271514  0.8858154984617765  1.0000
  B   B29       1.0  0.09077848339491948  0.5899384313274897  0.31520324870440936  1.0000
  B   B30       1.0  0.9092215168958923  0.08993843130605597  0.6847967514015271  1.0000
  B   B31       1.0  0.023202507606323093  0.6553217728687531  0.3696725283034807  1.0000
  B   B32       1.0  0.9767974926844886  0.15532177284731943  0.6303274718024557  1.0000
  B   B33       1.0  0.9010561047993788  0.6982473910814814  0.23810526926974965  1.0000
  B   B34       1.0  0.0989438950347963  0.1982473910600477  0.7618947299085342  1.0000
  B   B35       1.0  0.900978930071865  0.6616224643944384  0.10363794485467534  1.0000
  B   B36       1.0  0.09902106923542969  0.16162246437300465  0.896362055253737  1.0000
  B   B37       1.0  0.014309567708921831  0.5938848211224267  0.15146266845642942  1.0000
  B   B38       1.0  0.9856904325818897  0.09388482110099294  0.8485373316495071  1.0000
  B   B39       1.0  0.9085144617899565  0.6146566174505302  0.23154856931206208  1.0000
  B   B40       1.0  0.09148553751733812  0.11465661742909658  0.7684514307963504  1.0000
  C   C1        1.0  0.6802590345081705  0.7434645361109898  0.3996980938288948  1.0000
  C   C2        1.0  0.31974096578264105  0.2434645360895561  0.6003019062770416  1.0000
  C   C3        1.0  0.8947463799353153  0.7772342083367391  0.5799424396913001  1.0000
  C   C4        1.0  0.1052536203554964  0.2772342083153054  0.42005756041463627  1.0000
  C   C5        1.0  0.7888900491983121  0.7595405596658541  0.8114417492859605  1.0000
  C   C6        1.0  0.21110995109249955  0.25954055964442035  0.18855825081997601  1.0000
  C   C7        1.0  0.5415396788666197  0.7200038260300676  0.7045841292144873  1.0000
  C   C8        1.0  0.45846032096755557  0.22000382600863397  0.29541586996379654  1.0000
  C   C9        1.0  0.6752647549866696  0.9120293112110125  0.723422871292119  1.0000
  C   C10       1.0  0.32473524432062506  0.4120293111895787  0.27657712881629354  1.0000
  C   C11       1.0  0.7335152807052923  0.916556889361361  0.5442841011130047  1.0000
  C   C12       1.0  0.2664847195855194  0.4165568893399273  0.45571589899293186  1.0000
  C   C13       1.0  0.5536611995656519  0.8967338556470291  0.16435801132610983  1.0000
  C   C14       1.0  0.44633880072515975  0.3967338556255954  0.8356419887798265  1.0000
  C   C15       1.0  0.619445563414987  0.8413727730543624  0.014512343002279745  1.0000
  C   C16       1.0  0.3805544368758245  0.34137277303292873  0.9854876571036566  1.0000
  C   C17       1.0  0.29877328028065886  0.8698946771110879  0.7609901060038401  1.0000
  C   C18       1.0  0.7012267200101527  0.36989467708965423  0.23900989410209642  1.0000
  C   C19       1.0  0.13826660230700014  0.9137964922507552  0.8488385094197572  1.0000
  C   C20       1.0  0.8617333970002945  0.4137964922293215  0.1511614906886552  1.0000
  C   C21       1.0  0.24281705758145244  0.7217382215555784  0.8412194966553586  1.0000
  C   C22       1.0  0.757182942709359  0.22173822153414469  0.15878050345057781  1.0000
  C   C23       1.0  0.4626186945239892  0.710479670347465  0.032556275987629474  1.0000
  C   C24       1.0  0.5373813047833056  0.2104796703260313  0.967443724120783  1.0000
  C   C25       1.0  0.8190555908715687  0.43111847678851367  0.6927228348288689  1.0000
  C   C26       1.0  0.18094440941924303  0.9311184768099474  0.30727716527706755  1.0000
  C   C27       1.0  0.7830423933101281  0.5232439664529634  0.7107155017070311  1.0000
  C   C28       1.0  0.21695760698068345  0.023243966431529796  0.2892844983989053  1.0000
  C   C29       1.0  0.6581328534149553  0.5392567659054491  0.7397202667566521  1.0000
  C   C30       1.0  0.3418671458923396  0.03925676588401544  0.26027973335176036  1.0000
  C   C31       1.0  0.5169114835407929  0.545093336721234  0.6460857651722847  1.0000
  C   C32       1.0  0.4830885167500188  0.0450933366998003  0.3539142349336518  1.0000
  C   C33       1.0  0.40126732202989646  0.5603203636944257  0.6755153345568796  1.0000
  C   C34       1.0  0.5987326782609151  0.06032036367299195  0.3244846655490568  1.0000
  C   C35       1.0  0.425150813678192  0.5705723656049533  0.7988098932419571  1.0000
  C   C36       1.0  0.5748491866126197  0.07057236558351965  0.2011901068639795  1.0000
  C   C37       1.0  0.5656803512358919  0.5661485323528684  0.8922882345985673  1.0000
  C   C38       1.0  0.4343196490549196  0.06614853233143474  0.10771176550736902  1.0000
  C   C39       1.0  0.6808280714292433  0.5502774149275764  0.8631523586169116  1.0000
  C   C40       1.0  0.3191719288615684  0.050277415382482475  0.1368476414890248  1.0000
  C   C41       1.0  0.17599830926151583  0.7111769708107936  0.24673391233619488  1.0000
  C   C42       1.0  0.8240016910292958  0.21117697078935987  0.7532660877697417  1.0000
  C   C43       1.0  0.18177081465708417  0.6195390596849456  0.2378645567114265  1.0000
  C   C44       1.0  0.8182291846502104  0.11953905966351194  0.762135443396986  1.0000
  C   C45       1.0  0.3115641716392184  0.5916572815043492  0.22883149682805645  1.0000
  C   C46       1.0  0.6884358286515931  0.0916572814829155  0.77116850327788  1.0000
  C   C47       1.0  0.29293068130518396  0.5554835757696817  0.12354012083677954  1.0000
  C   C48       1.0  0.7070693180021108  0.05548357574824796  0.8764598792716329  1.0000
  C   C49       1.0  0.41158807675592646  0.5286639057293437  0.11152069098986721  1.0000
  C   C50       1.0  0.5884119235348851  0.028663905707910088  0.8884793091160692  1.0000
  C   C51       1.0  0.5513507495224104  0.5394967792293309  0.20204747692154634  1.0000
  C   C52       1.0  0.4486492507684013  0.03949677920789714  0.7979525231843902  1.0000
  C   C53       1.0  0.5714336255785184  0.5772798189098454  0.3043406630623804  1.0000
  C   C54       1.0  0.4285663747122933  0.07727981888841166  0.6956593370435561  1.0000
  C   C55       1.0  0.4524901965919613  0.6025041584411265  0.31904967494724246  1.0000
  C   C56       1.0  0.5475098036988504  0.10250415841969274  0.6809503251586939  1.0000
  N   N1        1.0  0.7368983706974286  0.7743894142969675  0.5203660903015069  1.0000
  N   N2        1.0  0.2631016286098661  0.27438941427553387  0.47963390980690557  1.0000
  N   N3        1.0  0.6451518911718614  0.7696990860873894  0.7111737515156789  1.0000
  N   N4        1.0  0.35484810911895015  0.26969908606595566  0.28882624859025763  1.0000
  N   N5        1.0  0.7031981457582558  0.8759846149600876  0.6305227180170843  1.0000
  N   N6        1.0  0.2968018545325558  0.375984614938654  0.3694772820888522  1.0000
  N   N7        1.0  0.5085725459295123  0.8525504713012575  0.060088546688167516  1.0000
  N   N8        1.0  0.4914274543612994  0.3525504712798239  0.9399114534177689  1.0000
  N   N9        1.0  0.24030180936501297  0.8636205134239728  0.8539269342838598  1.0000
  N   N10       1.0  0.7596981909257986  0.3636205134025391  0.14607306582207658  1.0000
  N   N11       1.0  0.3581999018467442  0.7543128825559818  0.9439911150239434  1.0000
  N   N12       1.0  0.6418000984440675  0.25431288253454815  0.05600888508199313  1.0000
  N   N13       1.0  0.7236476342467221  0.3895278936895581  0.702435986329006  1.0000
  N   N14       1.0  0.2763523660440896  0.8895278937109918  0.2975640137769305  1.0000
  N   N15       1.0  0.2958815018586013  0.7428396955019932  0.25462850269372667  1.0000
  N   N16       1.0  0.7041184984322102  0.24283969548055953  0.7453714974122096  1.0000
  O   O1        1.0  0.47413248544186376  0.8025535905148817  0.48586100358408113  1.0000
  O   O2        1.0  0.5258675134087945  0.30255359049344804  0.5141389955966787  1.0000
  O   O3        1.0  0.2621152441971137  0.8354780697320848  0.07238171435249009  1.0000
  O   O4        1.0  0.7378847551101809  0.3354780697106511  0.9276182857559224  1.0000
  P   P1        1.0  0.6295043951446923  0.8051349353136997  0.5802904061852662  1.0000
  P   P2        1.0  0.3704956051461194  0.305134935292266  0.4197095939206703  1.0000
  P   P3        1.0  0.33822939029646176  0.8272642452296942  0.9883011496733347  1.0000
  P   P4        1.0  0.6617706099943498  0.32726424520826053  0.01169885043260162  1.0000
