data_image0
_chemical_formula_structural       H108C92N16O24
_chemical_formula_sum              "H108 C92 N16 O24"
_cell_length_a       12.258752432892635
_cell_length_b       15.744898901225698
_cell_length_c       12.151277244812443
_cell_angle_alpha    90.0
_cell_angle_beta     90.0
_cell_angle_gamma    90.0

_space_group_name_H-M_alt    "P 1"
_space_group_IT_number       1

loop_
  _space_group_symop_operation_xyz
  'x, y, z'

loop_
  _atom_site_type_symbol
  _atom_site_label
  _atom_site_symmetry_multiplicity
  _atom_site_fract_x
  _atom_site_fract_y
  _atom_site_fract_z
  _atom_site_occupancy
  H   H1        1.0  0.8367753877202261  0.519435616659522  0.14091756245056608  1.0000
  H   H2        1.0  0.163224612043809  0.4805643832626308  0.6409175622525439  1.0000
  H   H3        1.0  0.163224612043809  0.519435616659522  0.35908243735141177  1.0000
  H   H4        1.0  0.8367753877202261  0.4805643832626308  0.8590824371533897  1.0000
  H   H5        1.0  0.3367753874303367  0.019435616698445603  0.14091756245056608  1.0000
  H   H6        1.0  0.6632246123336983  0.9805643832237072  0.6409175622525439  1.0000
  H   H7        1.0  0.6632246123336983  0.019435616698445603  0.35908243735141177  1.0000
  H   H8        1.0  0.3367753874303367  0.9805643832237072  0.8590824371533897  1.0000
  H   H9        1.0  0.8918018452404901  0.29763666946347855  0.05203321406150331  1.0000
  H   H10       1.0  0.10819815452354495  0.7023633304586742  0.5520332138634813  1.0000
  H   H11       1.0  0.10819815452354495  0.29763666946347855  0.4479667857404746  1.0000
  H   H12       1.0  0.8918018452404901  0.7023633304586742  0.9479667855424524  1.0000
  H   H13       1.0  0.3918018449506008  0.7976366700596812  0.05203321406150331  1.0000
  H   H14       1.0  0.6081981548134343  0.20236333049759778  0.5520332138634813  1.0000
  H   H15       1.0  0.6081981548134343  0.7976366700596812  0.4479667857404746  1.0000
  H   H16       1.0  0.3918018449506008  0.20236333049759778  0.9479667855424524  1.0000
  H   H17       1.0  0.8001520826606212  0.17598765653454226  0.1384151695426122  1.0000
  H   H18       1.0  0.19984791710341382  0.8240123433876104  0.6384151693445901  1.0000
  H   H19       1.0  0.19984791710341382  0.17598765653454226  0.36158483025936566  1.0000
  H   H20       1.0  0.8001520826606212  0.8240123433876104  0.8615848300613436  1.0000
  H   H21       1.0  0.30015208318647557  0.6759876564956186  0.1384151695426122  1.0000
  H   H22       1.0  0.6998479173933032  0.3240123434265341  0.6384151693445901  1.0000
  H   H23       1.0  0.6998479173933032  0.6759876564956186  0.36158483025936566  1.0000
  H   H24       1.0  0.30015208318647557  0.3240123434265341  0.8615848300613436  1.0000
  H   H25       1.0  0.5962925330302263  0.3464334502379928  0.32740037033542363  1.0000
  H   H26       1.0  0.40370746754955233  0.65356654968416  0.8274003701374015  1.0000
  H   H27       1.0  0.40370746754955233  0.3464334502379928  0.17259962946655424  1.0000
  H   H28       1.0  0.5962925330302263  0.65356654968416  0.6725996300914908  1.0000
  H   H29       1.0  0.096292532740337  0.8464334501990691  0.32740037033542363  1.0000
  H   H30       1.0  0.9037074670236981  0.1535665497230836  0.8274003701374015  1.0000
  H   H31       1.0  0.9037074670236981  0.8464334501990691  0.17259962946655424  1.0000
  H   H32       1.0  0.096292532740337  0.1535665497230836  0.6725996300914908  1.0000
  H   H33       1.0  0.6892708565782  0.4704219764423768  0.2419333203227704  1.0000
  H   H34       1.0  0.3107291431858351  0.5295780234797759  0.7419333201247483  1.0000
  H   H35       1.0  0.3107291431858351  0.4704219764423768  0.2580666794792075  1.0000
  H   H36       1.0  0.6892708565782  0.5295780234797759  0.7580666792811853  1.0000
  H   H37       1.0  0.1892708562883106  0.9704219764034532  0.2419333203227704  1.0000
  H   H38       1.0  0.8107291434757246  0.029578023518699523  0.7419333201247483  1.0000
  H   H39       1.0  0.8107291434757246  0.9704219764034532  0.2580666794792075  1.0000
  H   H40       1.0  0.1892708562883106  0.029578023518699523  0.7580666792811853  1.0000
  H   H41       1.0  0.9455779822176235  0.4048877144269075  0.9799245486793097  1.0000
  H   H42       1.0  0.05442201754641169  0.5951122854952452  0.4799245488773319  1.0000
  H   H43       1.0  0.05442201754641169  0.4048877144269075  0.5200754515495827  1.0000
  H   H44       1.0  0.9455779822176235  0.5951122854952452  0.020075451747604764  1.0000
  H   H45       1.0  0.44557798274347765  0.9048877143879839  0.9799245486793097  1.0000
  H   H46       1.0  0.5544220170205574  0.09511228553416885  0.4799245488773319  1.0000
  H   H47       1.0  0.5544220170205574  0.9048877143879839  0.5200754515495827  1.0000
  H   H48       1.0  0.44557798274347765  0.09511228553416885  0.020075451747604764  1.0000
  H   H49       1.0  0.055434449281854724  0.5046267092500341  0.1657378651992962  1.0000
  H   H50       1.0  0.9445655504821804  0.49537329067211866  0.6657378650012742  1.0000
  H   H51       1.0  0.9445655504821804  0.5046267092500341  0.33426213460268167  1.0000
  H   H52       1.0  0.055434449281854724  0.49537329067211866  0.8342621344046595  1.0000
  H   H53       1.0  0.555434449571744  0.004626709288957648  0.1657378651992962  1.0000
  H   H54       1.0  0.44456555019229094  0.995373290633195  0.6657378650012742  1.0000
  H   H55       1.0  0.44456555019229094  0.004626709288957648  0.33426213460268167  1.0000
  H   H56       1.0  0.555434449571744  0.995373290633195  0.8342621344046595  1.0000
  H   H57       1.0  0.052130888807679784  0.3926278827689873  0.1515406687627118  1.0000
  H   H58       1.0  0.9478691109563553  0.6073721177882917  0.6515406685646897  1.0000
  H   H59       1.0  0.9478691109563553  0.3926278827689873  0.34845933186222483  1.0000
  H   H60       1.0  0.052130888807679784  0.6073721177882917  0.8484593316642027  1.0000
  H   H61       1.0  0.5521308890975691  0.8926278827300637  0.1515406687627118  1.0000
  H   H62       1.0  0.4478691106664659  0.10737211719208906  0.6515406685646897  1.0000
  H   H63       1.0  0.4478691106664659  0.8926278827300637  0.34845933186222483  1.0000
  H   H64       1.0  0.5521308890975691  0.10737211719208906  0.8484593316642027  1.0000
  H   H65       1.0  0.22945200707803828  0.4540711359819177  0.08239030019888685  1.0000
  H   H66       1.0  0.7705479935017405  0.545928863940235  0.5823903000008648  1.0000
  H   H67       1.0  0.7705479935017405  0.4540711359819177  0.4176097004260498  1.0000
  H   H68       1.0  0.22945200707803828  0.545928863940235  0.9176097002280277  1.0000
  H   H69       1.0  0.729452006552184  0.9540711365781204  0.08239030019888685  1.0000
  H   H70       1.0  0.27054799321185113  0.04592886397915868  0.5823903000008648  1.0000
  H   H71       1.0  0.27054799321185113  0.9540711365781204  0.4176097004260498  1.0000
  H   H72       1.0  0.729452006552184  0.04592886397915868  0.9176097002280277  1.0000
  H   H73       1.0  0.1576780876016023  0.40452247613378944  0.9745687330980478  1.0000
  H   H74       1.0  0.8423219129781766  0.5954775237883633  0.47456873329606997  1.0000
  H   H75       1.0  0.8423219129781766  0.40452247613378944  0.5254312671308446  1.0000
  H   H76       1.0  0.1576780876016023  0.5954775237883633  0.025431267328866695  1.0000
  H   H77       1.0  0.6576780870757479  0.9045224760948658  0.9745687330980478  1.0000
  H   H78       1.0  0.3423219126882871  0.09547752382728691  0.47456873329606997  1.0000
  H   H79       1.0  0.3423219126882871  0.9045224760948658  0.5254312671308446  1.0000
  H   H80       1.0  0.6576780870757479  0.09547752382728691  0.025431267328866695  1.0000
  H   H81       1.0  0.8417517954202718  0.0  0.4999999998019779  1.0000
  H   H82       1.0  0.15824820434376335  0.0  0.0  1.0000
  H   H83       1.0  0.34175179594612604  0.49999999996107636  0.4999999998019779  1.0000
  H   H84       1.0  0.6582482046336527  0.49999999996107636  0.0  1.0000
  H   H85       1.0  0.9705438775381623  0.20715690208376555  0.4300021195081085  1.0000
  H   H86       1.0  0.029456122225872718  0.7928430978383871  0.9300021193100865  1.0000
  H   H87       1.0  0.029456122225872718  0.20715690208376555  0.06999788111682811  1.0000
  H   H88       1.0  0.9705438775381623  0.7928430978383871  0.569997880918806  1.0000
  H   H89       1.0  0.47054387724827296  0.7071569020448419  0.4300021195081085  1.0000
  H   H90       1.0  0.5294561225157621  0.2928430978773108  0.9300021193100865  1.0000
  H   H91       1.0  0.5294561225157621  0.7071569020448419  0.06999788111682811  1.0000
  H   H92       1.0  0.47054387724827296  0.2928430978773108  0.569997880918806  1.0000
  H   H93       1.0  0.8476562249612246  0.15783152471093645  0.4777361838631642  1.0000
  H   H94       1.0  0.1523437756185541  0.8421684758463426  0.9777361844881008  1.0000
  H   H95       1.0  0.1523437756185541  0.15783152471093645  0.02226381593881374  1.0000
  H   H96       1.0  0.8476562249612246  0.8421684758463426  0.5222638157407916  1.0000
  H   H97       1.0  0.3476562246713353  0.6578315246720128  0.4777361838631642  1.0000
  H   H98       1.0  0.6523437750926998  0.34216847525013994  0.9777361844881008  1.0000
  H   H99       1.0  0.6523437750926998  0.6578315246720128  0.02226381593881374  1.0000
  H   H100      1.0  0.3476562246713353  0.34216847525013994  0.5222638157407916  1.0000
  H   H101      1.0  0.8934940516957195  0.1400927941066861  0.34087579244135113  1.0000
  H   H102      1.0  0.10650594888405925  0.8599072058154665  0.8408757922433291  1.0000
  H   H103      1.0  0.10650594888405925  0.1400927941066861  0.15912420818358547  1.0000
  H   H104      1.0  0.8934940516957195  0.8599072058154665  0.6591242079855634  1.0000
  H   H105      1.0  0.3934940514058301  0.6400927940677625  0.34087579244135113  1.0000
  H   H106      1.0  0.6065059483582049  0.35990720585439023  0.8408757922433291  1.0000
  H   H107      1.0  0.6065059483582049  0.6400927940677625  0.15912420818358547  1.0000
  H   H108      1.0  0.3934940514058301  0.35990720585439023  0.6591242079855634  1.0000
  C   C1        1.0  0.8002420910041326  0.39340776138726435  0.14394785706553914  1.0000
  C   C2        1.0  0.19975790875990249  0.6065922385348884  0.6439478576904758  1.0000
  C   C3        1.0  0.19975790875990249  0.39340776138726435  0.35605214273643876  1.0000
  C   C4        1.0  0.8002420910041326  0.6065922385348884  0.8560521425384167  1.0000
  C   C5        1.0  0.3002420907142432  0.8934077613483407  0.14394785706553914  1.0000
  C   C6        1.0  0.699757909049792  0.106592238573812  0.6439478576904758  1.0000
  C   C7        1.0  0.699757909049792  0.8934077613483407  0.35605214273643876  1.0000
  C   C8        1.0  0.3002420907142432  0.106592238573812  0.8560521425384167  1.0000
  C   C9        1.0  0.8286818259533875  0.3088784031265776  0.11322979899807536  1.0000
  C   C10       1.0  0.17131817462639132  0.6911215974307013  0.6132297988000532  1.0000
  C   C11       1.0  0.17131817462639132  0.3088784031265776  0.3867702008039025  1.0000
  C   C12       1.0  0.8286818259533875  0.6911215974307013  0.8867702006058804  1.0000
  C   C13       1.0  0.3286818256634981  0.808878403087654  0.11322979899807536  1.0000
  C   C14       1.0  0.6713181741005371  0.19112159683449872  0.6132297988000532  1.0000
  C   C15       1.0  0.6713181741005371  0.808878403087654  0.3867702008039025  1.0000
  C   C16       1.0  0.3286818256634981  0.19112159683449872  0.8867702006058804  1.0000
  C   C17       1.0  0.7770182881287186  0.24054767602891125  0.1609479975312823  1.0000
  C   C18       1.0  0.2229817116353165  0.7594523238932414  0.6609479973332602  1.0000
  C   C19       1.0  0.2229817116353165  0.24054767602891125  0.33905200309365435  1.0000
  C   C20       1.0  0.7770182881287186  0.7594523238932414  0.8390520028956322  1.0000
  C   C21       1.0  0.2770182878388292  0.7405476759899876  0.1609479975312823  1.0000
  C   C22       1.0  0.7229817119252059  0.25945232393216505  0.6609479973332602  1.0000
  C   C23       1.0  0.7229817119252059  0.7405476759899876  0.33905200309365435  1.0000
  C   C24       1.0  0.2770182878388292  0.25945232393216505  0.8390520028956322  1.0000
  C   C25       1.0  0.6942891111140316  0.2547780525721711  0.23910630310409361  1.0000
  C   C26       1.0  0.3057108894657472  0.7452219473499817  0.7391063029060715  1.0000
  C   C27       1.0  0.3057108894657472  0.2547780525721711  0.26089369669788426  1.0000
  C   C28       1.0  0.6942891111140316  0.7452219473499817  0.7608936964998622  1.0000
  C   C29       1.0  0.19428911082414219  0.7547780525332475  0.23910630310409361  1.0000
  C   C30       1.0  0.8057108889398928  0.24522194738890524  0.7391063029060715  1.0000
  C   C31       1.0  0.8057108889398928  0.7547780525332475  0.26089369669788426  1.0000
  C   C32       1.0  0.19428911082414219  0.24522194738890524  0.7608936964998622  1.0000
  C   C33       1.0  0.6608172393027515  0.3375357036802747  0.26709388442153803  1.0000
  C   C34       1.0  0.3391827604612836  0.662464296241878  0.7670938842235159  1.0000
  C   C35       1.0  0.3391827604612836  0.3375357036802747  0.23290611538043982  1.0000
  C   C36       1.0  0.6608172393027515  0.662464296241878  0.7329061160053765  1.0000
  C   C37       1.0  0.1608172398286058  0.837535703641351  0.26709388442153803  1.0000
  C   C38       1.0  0.8391827607511729  0.16246429628080164  0.7670938842235159  1.0000
  C   C39       1.0  0.8391827607511729  0.837535703641351  0.23290611538043982  1.0000
  C   C40       1.0  0.1608172398286058  0.16246429628080164  0.7329061160053765  1.0000
  C   C41       1.0  0.7125888835605386  0.40584023880283937  0.2197625744355418  1.0000
  C   C42       1.0  0.28741111620349646  0.5941597617544397  0.7197625742375198  1.0000
  C   C43       1.0  0.28741111620349646  0.40584023880283937  0.2802374253664361  1.0000
  C   C44       1.0  0.7125888835605386  0.5941597617544397  0.7802374251684139  1.0000
  C   C45       1.0  0.21258888327064926  0.9058402387639157  0.2197625744355418  1.0000
  C   C46       1.0  0.7874111164933858  0.09415976179336336  0.7197625742375198  1.0000
  C   C47       1.0  0.7874111164933858  0.9058402387639157  0.2802374253664361  1.0000
  C   C48       1.0  0.21258888327064926  0.09415976179336336  0.7802374251684139  1.0000
  C   C49       1.0  0.9503459298795054  0.45979491805034267  0.03558666313737577  1.0000
  C   C50       1.0  0.04965406988452975  0.54020508187181  0.5355866637623125  1.0000
  C   C51       1.0  0.04965406988452975  0.45979491805034267  0.4644133366646021  1.0000
  C   C52       1.0  0.9503459298795054  0.54020508187181  0.96441333646658  1.0000
  C   C53       1.0  0.4503459304053596  0.959794918011419  0.03558666313737577  1.0000
  C   C54       1.0  0.5496540701744191  0.04020508191073369  0.5355866637623125  1.0000
  C   C55       1.0  0.5496540701744191  0.959794918011419  0.4644133366646021  1.0000
  C   C56       1.0  0.4503459304053596  0.04020508191073369  0.96441333646658  1.0000
  C   C57       1.0  0.0542715348598497  0.4526652831950016  0.10508152305924189  1.0000
  C   C58       1.0  0.9457284657199291  0.5473347167271511  0.6050815228612197  1.0000
  C   C59       1.0  0.9457284657199291  0.4526652831950016  0.394918476742736  1.0000
  C   C60       1.0  0.0542715348598497  0.5473347167271511  0.8949184773676726  1.0000
  C   C61       1.0  0.5542715343339953  0.952665283156078  0.10508152305924189  1.0000
  C   C62       1.0  0.4457284654300397  0.04733471676607476  0.6050815228612197  1.0000
  C   C63       1.0  0.4457284654300397  0.952665283156078  0.394918476742736  1.0000
  C   C64       1.0  0.5542715343339953  0.04733471676607476  0.8949184773676726  1.0000
  C   C65       1.0  0.15550202032672825  0.4585664770091306  0.032329379215482096  1.0000
  C   C66       1.0  0.8444979794373069  0.5414335229130222  0.5323293790174599  1.0000
  C   C67       1.0  0.8444979794373069  0.4585664770091306  0.4676706205864958  1.0000
  C   C68       1.0  0.15550202032672825  0.5414335229130222  0.9676706203884737  1.0000
  C   C69       1.0  0.6555020206166177  0.9585664769702069  0.032329379215482096  1.0000
  C   C70       1.0  0.3444979799631611  0.041433522951945724  0.5323293790174599  1.0000
  C   C71       1.0  0.3444979799631611  0.9585664769702069  0.4676706205864958  1.0000
  C   C72       1.0  0.6555020206166177  0.041433522951945724  0.9676706203884737  1.0000
  C   C73       1.0  0.9304331890572812  0.0  0.4999999998019779  1.0000
  C   C74       1.0  0.06956681070675383  0.0  0.0  1.0000
  C   C75       1.0  0.43043318958313553  0.49999999996107636  0.4999999998019779  1.0000
  C   C76       1.0  0.5695668109966432  0.49999999996107636  0.0  1.0000
  C   C77       1.0  0.9874602278058762  0.07285792606205291  0.4621165879823256  1.0000
  C   C78       1.0  0.012539771958158958  0.9271420738600997  0.9621165877843034  1.0000
  C   C79       1.0  0.012539771958158958  0.07285792606205291  0.03788341181965232  1.0000
  C   C80       1.0  0.9874602278058762  0.9271420738600997  0.5378834124445889  1.0000
  C   C81       1.0  0.4874602275159867  0.5728579260231292  0.4621165879823256  1.0000
  C   C82       1.0  0.5125397722480484  0.4271420738990234  0.9621165877843034  1.0000
  C   C83       1.0  0.5125397722480484  0.5728579260231292  0.03788341181965232  1.0000
  C   C84       1.0  0.4874602275159867  0.4271420738990234  0.5378834124445889  1.0000
  C   C85       1.0  0.9204407228034297  0.14967395883479093  0.4263678324195761  1.0000
  C   C86       1.0  0.07955927696060537  0.8503260410873619  0.926367832221554  1.0000
  C   C87       1.0  0.07955927696060537  0.14967395883479093  0.07363216738240179  1.0000
  C   C88       1.0  0.9204407228034297  0.8503260410873619  0.5736321680073384  1.0000
  C   C89       1.0  0.420440723329284  0.6496739587958672  0.4263678324195761  1.0000
  C   C90       1.0  0.5795592772504947  0.35032604112628546  0.926367832221554  1.0000
  C   C91       1.0  0.5795592772504947  0.6496739587958672  0.07363216738240179  1.0000
  C   C92       1.0  0.420440723329284  0.35032604112628546  0.5736321680073384  1.0000
  N   N1        1.0  0.8526938721719064  0.46183606548492534  0.10371335001330984  1.0000
  N   N2        1.0  0.14730612759212863  0.5381639350723537  0.6037133498152877  1.0000
  N   N3        1.0  0.14730612759212863  0.46183606548492534  0.3962866506116268  1.0000
  N   N4        1.0  0.8526938721719064  0.5381639350723537  0.8962866504136047  1.0000
  N   N5        1.0  0.352693871882017  0.9618360654460016  0.10371335001330984  1.0000
  N   N6        1.0  0.647306127882018  0.03816393447615104  0.6037133498152877  1.0000
  N   N7        1.0  0.647306127882018  0.9618360654460016  0.3962866506116268  1.0000
  N   N8        1.0  0.352693871882017  0.03816393447615104  0.8962866504136047  1.0000
  N   N9        1.0  0.6447252168004705  0.18427856273971566  0.29161989547335815  1.0000
  N   N10       1.0  0.3552747829635645  0.8157214371824371  0.791619895275336  1.0000
  N   N11       1.0  0.3552747829635645  0.18427856273971566  0.20838010432861973  1.0000
  N   N12       1.0  0.6447252168004705  0.8157214371824371  0.7083801049535564  1.0000
  N   N13       1.0  0.14472521651058115  0.684278562700792  0.29161989547335815  1.0000
  N   N14       1.0  0.855274783253454  0.31572143722136065  0.791619895275336  1.0000
  N   N15       1.0  0.855274783253454  0.684278562700792  0.20838010432861973  1.0000
  N   N16       1.0  0.14472521651058115  0.31572143722136065  0.7083801049535564  1.0000
  O   O1        1.0  0.681932344727792  0.11100437995597051  0.27087283942971246  1.0000
  O   O2        1.0  0.318067655036243  0.8889956199661821  0.7708728392316905  1.0000
  O   O3        1.0  0.318067655036243  0.11100437995597051  0.22912716037226538  1.0000
  O   O4        1.0  0.681932344727792  0.8889956199661821  0.7291271601742432  1.0000
  O   O5        1.0  0.18193234443790263  0.6110043799170469  0.27087283942971246  1.0000
  O   O6        1.0  0.8180676553261323  0.38899562000510585  0.7708728392316905  1.0000
  O   O7        1.0  0.8180676553261323  0.6110043799170469  0.22912716037226538  1.0000
  O   O8        1.0  0.18193234443790263  0.38899562000510585  0.7291271601742432  1.0000
  O   O9        1.0  0.5671771958901827  0.1961836922153586  0.35702126555067026  1.0000
  O   O10       1.0  0.43282280387385236  0.8038163083419204  0.8570212653526481  1.0000
  O   O11       1.0  0.43282280387385236  0.1961836922153586  0.1429787350742664  1.0000
  O   O12       1.0  0.5671771958901827  0.8038163083419204  0.6429787348762442  1.0000
  O   O13       1.0  0.067177196416037  0.6961836921764349  0.35702126555067026  1.0000
  O   O14       1.0  0.932822803347998  0.30381630838084406  0.8570212653526481  1.0000
  O   O15       1.0  0.932822803347998  0.6961836921764349  0.1429787350742664  1.0000
  O   O16       1.0  0.067177196416037  0.30381630838084406  0.6429787348762442  1.0000
  O   O17       1.0  0.08972224996148863  0.0778798770123918  0.4563506031736166  1.0000
  O   O18       1.0  0.9102777498025464  0.9221201229097609  0.9563506037985532  1.0000
  O   O19       1.0  0.9102777498025464  0.0778798770123918  0.04364939662836133  1.0000
  O   O20       1.0  0.08972224996148863  0.9221201229097609  0.5436493964303392  1.0000
  O   O21       1.0  0.589722250251378  0.5778798769734681  0.4563506031736166  1.0000
  O   O22       1.0  0.41027775032840075  0.42212012294868456  0.9563506037985532  1.0000
  O   O23       1.0  0.41027775032840075  0.5778798769734681  0.04364939662836133  1.0000
  O   O24       1.0  0.589722250251378  0.42212012294868456  0.5436493964303392  1.0000
