data_image0
_chemical_formula_structural       H34C26N4O4I2
_chemical_formula_sum              "H34 C26 N4 O4 I2"
_cell_length_a       10.056578234410422
_cell_length_b       7.0770812345176495
_cell_length_c       10.212301002278847
_cell_angle_alpha    90.0
_cell_angle_beta     109.57972636392677
_cell_angle_gamma    90.0

_space_group_name_H-M_alt    "P 1"
_space_group_IT_number       1

loop_
  _space_group_symop_operation_xyz
  'x, y, z'

loop_
  _atom_site_type_symbol
  _atom_site_label
  _atom_site_symmetry_multiplicity
  _atom_site_fract_x
  _atom_site_fract_y
  _atom_site_fract_z
  _atom_site_occupancy
  H   H1        1.0  0.65836845715591  0.6741257238550216  0.7931577223022627  1.0000
  H   H2        1.0  0.3416315434739931  0.17412572346769023  0.2068422782865413  1.0000
  H   H3        1.0  0.6854049403114574  0.8820656741303415  0.8946806386565349  1.0000
  H   H4        1.0  0.3145950593221797  0.3820656737430102  0.10531936192666669  1.0000
  H   H5        1.0  0.8409805950078315  0.5243573666924178  0.9785770389826112  1.0000
  H   H6        1.0  0.15901940562207162  0.02435736630508648  0.021422961606192857  1.0000
  H   H7        1.0  0.8835713605841067  0.7405924344115891  0.06892825890646105  1.0000
  H   H8        1.0  0.11642864004579652  0.24059243402425773  0.931071741682343  1.0000
  H   H9        1.0  0.22541530675274443  0.8766916564047146  0.3364560972797112  1.0000
  H   H10       1.0  0.7745846935288399  0.3766916560173832  0.6635439022697999  1.0000
  H   H11       1.0  0.06903762552705457  0.9618797473735602  0.3649954785560705  1.0000
  H   H12       1.0  0.9309623737582636  0.46187974698622886  0.6350045209878381  1.0000
  H   H13       1.0  0.1267996878087236  0.7219048475919058  0.40600854876137116  1.0000
  H   H14       1.0  0.8732003124728607  0.22190484720457443  0.59399145078814  1.0000
  H   H15       1.0  0.3519695698132293  0.13605880702676829  0.47473392013023624  1.0000
  H   H16       1.0  0.648030429472089  0.6360588074140996  0.5252660794136723  1.0000
  H   H17       1.0  0.18855968843714932  0.20747350091708747  0.4898149017396838  1.0000
  H   H18       1.0  0.8114403121927538  0.7074734998914068  0.5101850988491203  1.0000
  H   H19       1.0  0.17557697050603135  0.3595258081241196  0.6915749900607512  1.0000
  H   H20       1.0  0.8244230287792869  0.8595258070984391  0.3084250094831574  1.0000
  H   H21       1.0  0.6936679119700092  0.28051796555862313  0.9138307513429567  1.0000
  H   H22       1.0  0.306332087315309  0.7805179659459546  0.08616924820095194  1.0000
  H   H23       1.0  0.5611497061502801  0.4925609731590974  0.022622782465636062  1.0000
  H   H24       1.0  0.4388502931350381  0.9925609735464288  0.9773772170782725  1.0000
  H   H25       1.0  0.5702874359997808  0.121364209557295  0.6916592087766338  1.0000
  H   H26       1.0  0.42971256363385624  0.6213642099446264  0.30834079180656776  1.0000
  H   H27       1.0  0.30026704339154625  0.5328624619436103  0.9080074463295363  1.0000
  H   H28       1.0  0.6997329562420906  0.03286246155627903  0.09199255425366523  1.0000
  H   H29       1.0  0.33252844483526606  0.6562097800077779  0.598741419815075  1.0000
  H   H30       1.0  0.667471555794637  0.15620978103345848  0.4012585807737291  1.0000
  H   H31       1.0  0.4236776266752721  0.8400931348649723  0.7136447924100946  1.0000
  H   H32       1.0  0.5763223739546312  0.3400931358906528  0.2863552081787095  1.0000
  H   H33       1.0  0.441234154787733  0.8187767100563651  0.545235005758082  1.0000
  H   H34       1.0  0.5587658454938514  0.3187767110820457  0.45476499379142904  1.0000
  C   C1        1.0  0.9862950847108858  0.6978136234911525  0.918746119140009  1.0000
  C   C2        1.0  0.013704915570698601  0.1978136231038212  0.08125388040950197  1.0000
  C   C3        1.0  0.7391627540780031  0.7737370617271447  0.8544443530413377  1.0000
  C   C4        1.0  0.26083724655189994  0.2737370613398134  0.14555564754746633  1.0000
  C   C5        1.0  0.859360548073484  0.6749270697506062  0.9662181295946217  1.0000
  C   C6        1.0  0.1406394525564191  0.1749270693632749  0.033781870994182395  1.0000
  C   C7        1.0  0.8085499039412006  0.8649112405472044  0.7593922297581303  1.0000
  C   C8        1.0  0.19145009534411747  0.36491124157288485  0.24060776978577825  1.0000
  C   C9        1.0  0.16083761628718007  0.8685221627838122  0.4047490752594259  1.0000
  C   C10       1.0  0.8391623839944043  0.36852216380949276  0.5952509242900852  1.0000
  C   C11       1.0  0.2862100940206392  0.12991497617911185  0.5421863673203332  1.0000
  C   C12       1.0  0.7137899062609452  0.6299149765664431  0.4578136322291778  1.0000
  C   C13       1.0  0.36286083798250224  0.22368268040770814  0.6786576826536383  1.0000
  C   C14       1.0  0.6371391616511347  0.7236826793820276  0.32134231792956314  1.0000
  C   C15       1.0  0.28914794023689144  0.3409627020007583  0.7412763010618754  1.0000
  C   C16       1.0  0.7108520593967456  0.8409627023880897  0.2587236995213262  1.0000
  C   C17       1.0  0.5801649908808627  0.30056226281892845  0.8649677110594309  1.0000
  C   C18       1.0  0.41983500875277435  0.8005622617932479  0.1350322895237707  1.0000
  C   C19       1.0  0.5055755781517982  0.4169313848777811  0.926695202613924  1.0000
  C   C20       1.0  0.4944244224781049  0.9169313852651124  0.07330479797488  1.0000
  C   C21       1.0  0.5096197523506443  0.2069881030692791  0.7405747728890435  1.0000
  C   C22       1.0  0.4903802479309401  0.7069881034566105  0.2594252266604676  1.0000
  C   C23       1.0  0.3597885544322262  0.4385179069110289  0.863763290140594  1.0000
  C   C24       1.0  0.6402114458493582  0.9385179072983603  0.136236709408917  1.0000
  C   C25       1.0  0.3684388833953638  0.8030056433833389  0.6048477818662595  1.0000
  C   C26       1.0  0.6315611168862206  0.3030056429960077  0.3951522176832516  1.0000
  N   N1        1.0  0.9487871262438722  0.8092721674672643  0.8006193860415569  1.0000
  N   N2        1.0  0.051212874386030866  0.3092721670799329  0.19938061454724723  1.0000
  N   N3        1.0  0.2451490583604288  0.9279344608862031  0.5472021366377724  1.0000
  N   N4        1.0  0.7548509419211555  0.4279344604988718  0.45279786291173874  1.0000
  O   O1        1.0  0.1044711423825088  0.6295388963842603  0.9754673606281841  1.0000
  O   O2        1.0  0.8955288582473944  0.12953889740994096  0.024532639960620172  1.0000
  O   O3        1.0  0.7504736852117836  0.9664338479882039  0.6585226659303918  1.0000
  O   O4        1.0  0.24952631442185336  0.4664338490138844  0.34147733465280994  1.0000
  I   I1        1.0  0.09223682377406663  0.8767530079683906  0.6853456339445906  1.0000
  I   I2        1.0  0.9077631755112516  0.37675300899407116  0.3146543655993179  1.0000
