data_image0
_chemical_formula_structural       H24C60N8F8
_chemical_formula_sum              "H24 C60 N8 F8"
_cell_length_a       8.556774308606814
_cell_length_b       7.0511864052817295
_cell_length_c       18.380282864736383
_cell_angle_alpha    90.0
_cell_angle_beta     95.7160781157719
_cell_angle_gamma    90.0

_space_group_name_H-M_alt    "P 1"
_space_group_IT_number       1

loop_
  _space_group_symop_operation_xyz
  'x, y, z'

loop_
  _atom_site_type_symbol
  _atom_site_label
  _atom_site_symmetry_multiplicity
  _atom_site_fract_x
  _atom_site_fract_y
  _atom_site_fract_z
  _atom_site_occupancy
  H   H1        1.0  0.5576190452871496  0.963284782105915  0.8538243070658778  1.0000
  H   H2        1.0  0.44238095464627886  0.4632847824804426  0.6461756931468478  1.0000
  H   H3        1.0  0.44238095403893907  0.036715217145029684  0.14617569326070687  1.0000
  H   H4        1.0  0.5576190458661924  0.5367152167705019  0.35382430669624354  1.0000
  H   H5        1.0  0.7792827088211295  0.07845291958040322  0.9388784766766739  1.0000
  H   H6        1.0  0.2207172911122988  0.5784529206240766  0.5611215235360515  1.0000
  H   H7        1.0  0.2207172905168977  0.9215470796705414  0.06112152310643117  1.0000
  H   H8        1.0  0.7792827093882339  0.4215470800450691  0.4388784768505193  1.0000
  H   H9        1.0  0.11021462415335011  0.26969201361285244  0.1498178729944164  1.0000
  H   H10       1.0  0.8897853757398426  0.7696920132383247  0.3501821275060137  1.0000
  H   H11       1.0  0.8897853763471824  0.7303079870562933  0.8501821273921545  1.0000
  H   H12       1.0  0.11021462358624586  0.23030798743082095  0.6498178728205709  1.0000
  H   H13       1.0  0.6644249046854862  0.14752972907095294  0.2309392350202681  1.0000
  H   H14       1.0  0.33557509521964524  0.6475297286964252  0.26906076493668235  1.0000
  H   H15       1.0  0.33557509464060226  0.8524702715981928  0.7690607653063164  1.0000
  H   H16       1.0  0.664424905292826  0.35247027055451935  0.7309392349064089  1.0000
  H   H17       1.0  0.9994570379990428  0.18466263479074416  0.0235912919727037  1.0000
  H   H18       1.0  0.0005429619060886972  0.6846626344162164  0.4764087079842467  1.0000
  H   H19       1.0  0.000542962501489751  0.8153373644602004  0.9764087084138672  1.0000
  H   H20       1.0  0.9994570386063826  0.3153373648347282  0.5235912918588446  1.0000
  H   H21       1.0  0.9405270555769117  0.25034210961686687  0.25300468801676085  1.0000
  H   H22       1.0  0.0594729443282199  0.7503421092423391  0.2469953119401896  1.0000
  H   H23       1.0  0.05947294376111565  0.7496578910522789  0.7469953117663441  1.0000
  H   H24       1.0  0.9405270561723127  0.24965789000860544  0.7530046884463812  1.0000
  C   C1        1.0  0.12594551710828453  0.33040100007211715  0.8858994616526801  1.0000
  C   C2        1.0  0.8740544828370825  0.8304009996975894  0.6141005380165657  1.0000
  C   C3        1.0  0.8740544822297428  0.6695989991788275  0.11410053813042494  1.0000
  C   C4        1.0  0.12594551767538875  0.16959899955335517  0.3858994618265255  1.0000
  C   C5        1.0  0.3467744139295739  0.4569832443496797  0.011200470408639553  1.0000
  C   C6        1.0  0.6532255859755576  0.956983243975152  0.4887995295483109  1.0000
  C   C7        1.0  0.6532255854084533  0.543016756319466  0.9887995293744656  1.0000
  C   C8        1.0  0.3467744145249749  0.043016755275792615  0.5112004708382599  1.0000
  C   C9        1.0  0.44968696157165017  0.5152223131243183  0.06874846521149687  1.0000
  C   C10       1.0  0.5503130395079254  0.015222313498846075  0.4312515348054398  1.0000
  C   C11       1.0  0.5503130389408212  0.48477768754482725  0.9312515346315944  1.0000
  C   C12       1.0  0.4496869610045459  0.9847776871702997  0.5687484650376515  1.0000
  C   C13       1.0  0.3899684994514346  0.4380553501870707  0.9387216931110907  1.0000
  C   C14       1.0  0.6100315004939325  0.938055349812543  0.561278306558155  1.0000
  C   C15       1.0  0.6100315010610368  0.561944650482075  0.06127830673200056  1.0000
  C   C16       1.0  0.3899684988440947  0.06194464943840162  0.43872169322494986  1.0000
  C   C17       1.0  0.32521001280868866  0.35382527231604466  0.8071086159737015  1.0000
  C   C18       1.0  0.6747899883111225  0.853825271941517  0.6928913837555305  1.0000
  C   C19       1.0  0.6747899877037827  0.646174728353101  0.19289138386938964  1.0000
  C   C20       1.0  0.3252100122013488  0.14617472872762868  0.3071086160875608  1.0000
  C   C21       1.0  0.28494442183547736  0.37700257902822915  0.8794071279640134  1.0000
  C   C22       1.0  0.7150555792723949  0.8770025786537015  0.6205928723086982  1.0000
  C   C23       1.0  0.7150555786650552  0.6229974216409165  0.12059287242255737  1.0000
  C   C24       1.0  0.28494442124007624  0.12299742201544422  0.37940712753439304  1.0000
  C   C25       1.0  0.7701715679127745  0.11279816817836934  0.054826727729601336  1.0000
  C   C26       1.0  0.22982843199235703  0.6127981678038417  0.44517327222734915  1.0000
  C   C27       1.0  0.22982843259969682  0.8872018310725753  0.9451732721134899  1.0000
  C   C28       1.0  0.7701715673337315  0.38720183144710296  0.5548267280992355  1.0000
  C   C29       1.0  0.5487571449137372  0.0060274381582317415  0.9698906232717719  1.0000
  C   C30       1.0  0.4512428550316298  0.5060274392019052  0.5301093763974738  1.0000
  C   C31       1.0  0.45124285559873406  0.9939725610927129  0.030109376571319284  1.0000
  C   C32       1.0  0.5487571443063973  0.49397256146724056  0.46989062338563115  1.0000
  C   C33       1.0  0.7063305186491147  0.06536099366977179  0.9841012133380668  1.0000
  C   C34       1.0  0.29366948128431364  0.5653609947134451  0.5158987868746586  1.0000
  C   C35       1.0  0.2936694806769738  0.9346390055811729  0.015898786988517762  1.0000
  C   C36       1.0  0.7063305192281577  0.4346390059557005  0.48410121296843267  1.0000
  C   C37       1.0  0.4840837913600587  0.9582931781435469  0.8990068458552355  1.0000
  C   C38       1.0  0.5159162085733696  0.45829317851807455  0.6009931543574898  1.0000
  C   C39       1.0  0.5159162091404739  0.041706821107397735  0.10099315453133521  1.0000
  C   C40       1.0  0.48408379076465763  0.54170682073287  0.39900684542561526  1.0000
  C   C41       1.0  0.6726135597565406  0.10158028434243072  0.11474834259474671  1.0000
  C   C42       1.0  0.327386440148591  0.6015802839679031  0.3852516573622038  1.0000
  C   C43       1.0  0.3273864395814867  0.8984197149085139  0.8852516571883583  1.0000
  C   C44       1.0  0.6726135603519416  0.3984197152830416  0.6147483430243671  1.0000
  C   C45       1.0  0.9284057667994126  0.175063359419255  0.0693700196612975  1.0000
  C   C46       1.0  0.07159423310571887  0.6750633590447274  0.43062998029565297  1.0000
  C   C47       1.0  0.0715942325386146  0.8249366412498906  0.9306299801218074  1.0000
  C   C48       1.0  0.9284057674067525  0.3249366416244183  0.5693700195474383  1.0000
  C   C49       1.0  0.7383286682890361  0.15389004454444635  0.18598058181799262  1.0000
  C   C50       1.0  0.2616713316160954  0.6538900455881198  0.31401941813895784  1.0000
  C   C51       1.0  0.2616713310489912  0.8461099547064982  0.8140194179651123  1.0000
  C   C52       1.0  0.7383286688844372  0.346109955081026  0.685980582247613  1.0000
  C   C53       1.0  0.9888652579098365  0.22258476514312084  0.13916734330083974  1.0000
  C   C54       1.0  0.011134741995294982  0.7225847661867942  0.3608326566561107  1.0000
  C   C55       1.0  0.01113474141625199  0.7774152341078238  0.860832657025745  1.0000
  C   C56       1.0  0.9888652585171763  0.2774152344823515  0.6391673431869805  1.0000
  C   C57       1.0  0.8928438655767745  0.21200333164930313  0.1977863655081838  1.0000
  C   C58       1.0  0.1071561343283569  0.7120033312747754  0.3022136344487667  1.0000
  C   C59       1.0  0.10715613376125264  0.7879966690198426  0.8022136342749212  1.0000
  C   C60       1.0  0.8928438661841143  0.28799666939437024  0.6977863653943246  1.0000
  N   N1        1.0  0.9937486168548211  0.28790425657721486  0.8860196984196621  1.0000
  N   N2        1.0  0.006251383090546032  0.7879042562026871  0.6139803012495837  1.0000
  N   N3        1.0  0.006251383657650293  0.7120957440919309  0.11398030142342909  1.0000
  N   N4        1.0  0.9937486162474811  0.21209574304825748  0.3860196985335213  1.0000
  N   N5        1.0  0.34535915786111715  0.32712320415642737  0.7458905429968793  1.0000
  N   N6        1.0  0.6546408420723111  0.8271232037818996  0.754109457215846  1.0000
  N   N7        1.0  0.6546408426394155  0.6728767950945173  0.2541094573896916  1.0000
  N   N8        1.0  0.34535915726571614  0.17287679546904497  0.24589054256725892  1.0000
  F   F1        1.0  0.1982892195720184  0.4179998131650921  0.024677120420599084  1.0000
  F   F2        1.0  0.8017107803331132  0.9179998127905644  0.47532287953635144  1.0000
  F   F3        1.0  0.8017107797660089  0.5820001875040536  0.975322879362506  1.0000
  F   F4        1.0  0.19828922017935818  0.08200018646038024  0.5246771203067399  1.0000
  F   F5        1.0  0.39660442494200604  0.529641770242037  0.1349582277437561  1.0000
  F   F6        1.0  0.6033955749511867  0.029641769198363584  0.365041772756674  1.0000
  F   F7        1.0  0.6033955755585265  0.4703582304271088  0.8650417726428148  1.0000
  F   F8        1.0  0.3966044243749018  0.970358230052581  0.6349582275699107  1.0000
