data_image0
_chemical_formula_structural       H68C44N8O8I4
_chemical_formula_sum              "H68 C44 N8 O8 I4"
_cell_length_a       9.701760803476041
_cell_length_b       10.474258640245845
_cell_length_c       12.330751667823087
_cell_angle_alpha    90.0
_cell_angle_beta     106.39179690895848
_cell_angle_gamma    90.0

_space_group_name_H-M_alt    "P 1"
_space_group_IT_number       1

loop_
  _space_group_symop_operation_xyz
  'x, y, z'

loop_
  _atom_site_type_symbol
  _atom_site_label
  _atom_site_symmetry_multiplicity
  _atom_site_fract_x
  _atom_site_fract_y
  _atom_site_fract_z
  _atom_site_occupancy
  H   H1        1.0  0.4696434589374464  0.5557600360977308  0.6108637357124957  1.0000
  H   H2        1.0  0.03035654157183264  0.05576003610946652  0.8891362642186663  1.0000
  H   H3        1.0  0.5303565416317072  0.4442399638787978  0.3891362641111998  1.0000
  H   H4        1.0  0.969643458997321  0.944239963867062  0.11086373560502927  1.0000
  H   H5        1.0  0.2932539630457084  0.5134351284143748  0.6102254540776826  1.0000
  H   H6        1.0  0.20674603643368597  0.013435128426110457  0.8897745458558549  1.0000
  H   H7        1.0  0.7067460367996588  0.48656487156215383  0.38977454659372496  1.0000
  H   H8        1.0  0.7932539631055829  0.9865648715504182  0.11022545397021598  1.0000
  H   H9        1.0  0.32738955595124647  0.6155051122404479  0.7879686905766465  1.0000
  H   H10       1.0  0.17261044455803262  0.11550511225218357  0.7120313093545158  1.0000
  H   H11       1.0  0.6726104446179073  0.38449488773608076  0.21203130924704905  1.0000
  H   H12       1.0  0.8273895549812363  0.884494887724345  0.2879686904715552  1.0000
  H   H13       1.0  0.499587273142142  0.6689284292712049  0.7870737576370982  1.0000
  H   H14       1.0  0.0004127273671370562  0.1689284292829406  0.7129262422940639  1.0000
  H   H15       1.0  0.5004127274270116  0.3310715707053237  0.21292624218659742  1.0000
  H   H16       1.0  0.9995872724782299  0.831071570693588  0.28707375837734345  1.0000
  H   H17       1.0  0.044996787646044506  0.47902150140930977  0.23709525357504474  1.0000
  H   H18       1.0  0.45500321263853233  0.979021501397574  0.26290474633680305  1.0000
  H   H19       1.0  0.9550032132292074  0.5209784985672189  0.7629047470939876  1.0000
  H   H20       1.0  0.5449967869007367  0.020978498578954563  0.737095253489268  1.0000
  H   H21       1.0  0.9256888133058268  0.4087249176328834  0.3819982979935019  1.0000
  H   H22       1.0  0.5743111862933168  0.9087249176211477  0.11800170172510244  1.0000
  H   H23       1.0  0.07431118623344216  0.5912750832983668  0.618001701832569  1.0000
  H   H24       1.0  0.4256888132459522  0.09127508235538094  0.8819982981009685  1.0000
  H   H25       1.0  0.09254916498374469  0.4817652459536325  0.44523264718500893  1.0000
  H   H26       1.0  0.4074508342709475  0.9817652459418968  0.05476735272921414  1.0000
  H   H27       1.0  0.9074508345555244  0.5182347540228961  0.5547673526410619  1.0000
  H   H28       1.0  0.5925491652683216  0.018234754034631807  0.9452326470968568  1.0000
  H   H29       1.0  0.29570548829949067  0.4544817369421258  0.36203242278008324  1.0000
  H   H30       1.0  0.20429451095520149  0.9544817369303902  0.1379675771341398  1.0000
  H   H31       1.0  0.7042945112397783  0.5455182630344029  0.6379675770459876  1.0000
  H   H32       1.0  0.7957054888901657  0.04551826304613856  0.8620324235372677  1.0000
  H   H33       1.0  0.2720130260002516  0.3727532510032004  0.23098197502204784  1.0000
  H   H34       1.0  0.2279869742843252  0.8727532519461862  0.2690180248898  1.0000
  H   H35       1.0  0.7279869735390173  0.6272467489733282  0.769018024804023  1.0000
  H   H36       1.0  0.7720130262848284  0.1272467489850639  0.7309819749338956  1.0000
  H   H37       1.0  0.1786790887461335  0.2940769772635386  0.5450643024350941  1.0000
  H   H38       1.0  0.3213209107332609  0.7940769772518029  0.9549356974984434  1.0000
  H   H39       1.0  0.8213209107931355  0.70592302271299  0.45493569739097683  1.0000
  H   H40       1.0  0.6786790888060081  0.2059230227247257  0.04506430232762753  1.0000
  H   H41       1.0  0.008765270279528383  0.22258863276888471  0.4875253585085236  1.0000
  H   H42       1.0  0.4912347289751638  0.722588632757149  0.012474641405699427  1.0000
  H   H43       1.0  0.9912347292597405  0.7774113672076439  0.5124746413175473  1.0000
  H   H44       1.0  0.5087652708702033  0.27741136721937965  0.987525359265708  1.0000
  H   H45       1.0  0.03345272715552472  0.26753365333493695  0.1387287615188376  1.0000
  H   H46       1.0  0.46654727312905214  0.7675336542779226  0.3612712383930103  1.0000
  H   H47       1.0  0.9665472734136289  0.7324663466415916  0.861271238304858  1.0000
  H   H48       1.0  0.5334527274401015  0.23246634665332735  0.6387287614306855  1.0000
  H   H49       1.0  0.8861957205633809  0.28764742341032007  0.1960894323735394  1.0000
  H   H50       1.0  0.6138042800656475  0.7876474233985844  0.30391056734268973  1.0000
  H   H51       1.0  0.1138042800057729  0.7123525765662085  0.8039105674501564  1.0000
  H   H52       1.0  0.3861957205035063  0.21235257657794426  0.696089432481006  1.0000
  H   H53       1.0  0.3267826209410801  0.17716927027843984  0.3231342442973658  1.0000
  H   H54       1.0  0.1732173786197101  0.6771692702667041  0.1768657564621938  1.0000
  H   H55       1.0  0.6732173789042869  0.8228307296980888  0.6768657563740416  1.0000
  H   H56       1.0  0.8267826212256569  0.32283072970982446  0.8231342442092136  1.0000
  H   H57       1.0  0.36772141781410017  0.2581848322523881  0.4550912220541993  1.0000
  H   H58       1.0  0.13227858144059196  0.7581848322406525  0.04490877786002379  1.0000
  H   H59       1.0  0.6322785817251688  0.7418151677241406  0.5449087777718716  1.0000
  H   H60       1.0  0.867721418098677  0.24181516773587625  0.955091221966047  1.0000
  H   H61       1.0  0.9588992330517531  0.10814103116069454  0.31102377395520114  1.0000
  H   H62       1.0  0.5411007665473905  0.6081410311489588  0.1889762257634032  1.0000
  H   H63       1.0  0.04110076648751589  0.891858968815834  0.6889762258708697  1.0000
  H   H64       1.0  0.4588992329918785  0.39185896882756976  0.8110237740626678  1.0000
  H   H65       1.0  0.09925691332516462  0.08430393981366058  0.2462568411696028  1.0000
  H   H66       1.0  0.4007430859295275  0.5843039398019249  0.2537431587446203  1.0000
  H   H67       1.0  0.9007430865202025  0.9156960601628681  0.7537431595018047  1.0000
  H   H68       1.0  0.5992569136097415  0.4156960601746037  0.7462568410814506  1.0000
  C   C1        1.0  0.33020078113897855  0.7955326945988438  0.7028126931202048  1.0000
  C   C2        1.0  0.1697992183404158  0.29553269461057957  0.7971873068133326  1.0000
  C   C3        1.0  0.6697992184002904  0.20446730537768473  0.29718730670586607  1.0000
  C   C4        1.0  0.8302007811988531  0.704467305365949  0.20281269301273822  1.0000
  C   C5        1.0  0.36915059820059626  0.5935008102734888  0.6222543094576389  1.0000
  C   C6        1.0  0.1308494023086829  0.09350081028522447  0.8777456904735234  1.0000
  C   C7        1.0  0.6308494023685575  0.4064991897030399  0.3777456903660568  1.0000
  C   C8        1.0  0.8691505972305862  0.9064991896913043  0.12225430935254754  1.0000
  C   C9        1.0  0.38728395310642155  0.6615262557462842  0.7351541454438005  1.0000
  C   C10       1.0  0.11271604637297289  0.16152625575801988  0.764845854489737  1.0000
  C   C11       1.0  0.6127160464328474  0.3384737442302444  0.2648458543822703  1.0000
  C   C12       1.0  0.887283953166296  0.8384737442185087  0.23515414533633391  1.0000
  C   C13       1.0  0.31040934714767754  0.6950274344026635  0.5327911599504422  1.0000
  C   C14       1.0  0.1895906533616016  0.19502743441439915  0.96720883998072  1.0000
  C   C15       1.0  0.6895906537275743  0.3049725655738652  0.4672088407185901  1.0000
  C   C16       1.0  0.8104093472075521  0.8049725655621295  0.032791159842975634  1.0000
  C   C17       1.0  0.07908518876610551  0.39089295200981405  0.2852268790456061  1.0000
  C   C18       1.0  0.4209148115184714  0.8908929519980785  0.2147731208662417  1.0000
  C   C19       1.0  0.9209148118030481  0.6091070479667146  0.7147731207780895  1.0000
  C   C20       1.0  0.5790851883268958  0.1091070479784502  0.7852268798051658  1.0000
  C   C21       1.0  0.04197465293095221  0.397432856393767  0.3977866343401839  1.0000
  C   C22       1.0  0.4580253476597228  0.8974328563820313  0.10221336641700048  1.0000
  C   C23       1.0  0.9580253469144148  0.6025671435827616  0.6022133663312235  1.0000
  C   C24       1.0  0.5419746532155291  0.10256714359449734  0.8977866342520318  1.0000
  C   C25       1.0  0.24204465684123086  0.37354810343963063  0.3104226303995403  1.0000
  C   C26       1.0  0.25795534344334603  0.8735481034278949  0.18957736951230747  1.0000
  C   C27       1.0  0.7579553437279228  0.626451896536898  0.6895773694241553  1.0000
  C   C28       1.0  0.7420446560959231  0.12645189654863367  0.8104226303137634  1.0000
  C   C29       1.0  0.09581466241893788  0.2741750799398434  0.4657428719336886  1.0000
  C   C30       1.0  0.40418533683575425  0.7741750799281076  0.03425712798053442  1.0000
  C   C31       1.0  0.904185337120331  0.7258249200366852  0.5342571278923822  1.0000
  C   C32       1.0  0.5958146627035148  0.2258249200484209  0.9657428718455365  1.0000
  C   C33       1.0  0.0031682740585741265  0.2756849299963653  0.21763286656367611  1.0000
  C   C34       1.0  0.49683172622600275  0.7756849299846297  0.28236713334817176  1.0000
  C   C35       1.0  0.9968317265105795  0.7243150699801634  0.7823671332600195  1.0000
  C   C36       1.0  0.5031682733132662  0.224315069991899  0.717632866477899  1.0000
  C   C37       1.0  0.28552335313024363  0.24577821003087016  0.3737876090457969  1.0000
  C   C38       1.0  0.2144766471543332  0.7457782100191346  0.12621239086605093  1.0000
  C   C39       1.0  0.71447664743891  0.7542217899456585  0.6262123907778988  1.0000
  C   C40       1.0  0.7855233523849358  0.25422178995739414  0.8737876089600198  1.0000
  C   C41       1.0  0.04947498733614779  0.15419280117777315  0.289659162501902  1.0000
  C   C42       1.0  0.4505250119185444  0.6541928011660375  0.21034083741232104  1.0000
  C   C43       1.0  0.9505250122031212  0.8458071987987555  0.7103408373241689  1.0000
  C   C44       1.0  0.5494749876207246  0.3458071988104912  0.7896591624137498  1.0000
  N   N1        1.0  0.2938301418180798  0.8078153004059677  0.5862444875060465  1.0000
  N   N2        1.0  0.20616985869119925  0.30781530041770333  0.9137555124251155  1.0000
  N   N3        1.0  0.7061698587510739  0.19218469957056095  0.413755512317649  1.0000
  N   N4        1.0  0.7938301408480697  0.6921846995588253  0.08624448740095526  1.0000
  N   N5        1.0  0.15854418513502222  0.18543492925952912  0.39807963749667896  1.0000
  N   N6        1.0  0.3414558151495546  0.6854349292477934  0.10192036241516889  1.0000
  N   N7        1.0  0.8414558154341316  0.8145650707169996  0.6019203623270167  1.0000
  N   N8        1.0  0.6585441843897144  0.3145650707287352  0.8980796374109019  1.0000
  O   O1        1.0  0.31693241810210976  0.8808676209835737  0.7679163519882068  1.0000
  O   O2        1.0  0.18306758137728454  0.38086762099530946  0.7320836479453305  1.0000
  O   O3        1.0  0.6830675814371592  0.11913237899295485  0.23208364783786403  1.0000
  O   O4        1.0  0.8169324181619845  0.6191323789812192  0.26791635188074026  1.0000
  O   O5        1.0  0.28141705088910335  0.680250922258376  0.42961540063332404  1.0000
  O   O6        1.0  0.21858294836558875  0.18025092227011175  0.07038459928089903  1.0000
  O   O7        1.0  0.7185829486501656  0.3197490777181526  0.5703845991927469  1.0000
  O   O8        1.0  0.7814170511736803  0.819749077706417  0.9296154005451719  1.0000
  I   I1        1.0  0.22793085376414943  0.990990371396478  0.4974984434711998  1.0000
  I   I2        1.0  0.2720691465204274  0.49099037140821383  0.0025015564406479724  1.0000
  I   I3        1.0  0.7720691457751195  0.009009628580050513  0.502501556354871  1.0000
  I   I4        1.0  0.7279308540487263  0.5090096285683149  0.9974984433830476  1.0000
