data_image0
_chemical_formula_structural       H68C44N8O8Br4
_chemical_formula_sum              "H68 C44 N8 O8 Br4"
_cell_length_a       9.775823678421245
_cell_length_b       10.274295200523706
_cell_length_c       12.083200586858224
_cell_angle_alpha    90.0
_cell_angle_beta     106.50007871812986
_cell_angle_gamma    90.0

_space_group_name_H-M_alt    "P 1"
_space_group_IT_number       1

loop_
  _space_group_symop_operation_xyz
  'x, y, z'

loop_
  _atom_site_type_symbol
  _atom_site_label
  _atom_site_symmetry_multiplicity
  _atom_site_fract_x
  _atom_site_fract_y
  _atom_site_fract_z
  _atom_site_occupancy
  H   H1        1.0  0.034654731905933316  0.07010869806069847  0.39906248063517596  1.0000
  H   H2        1.0  0.46534526806838766  0.5701086980352122  0.1009375194828781  1.0000
  H   H3        1.0  0.9653452680427087  0.9298913018883291  0.6009375196009322  1.0000
  H   H4        1.0  0.5346547318802544  0.4298913019138153  0.8990624807532301  1.0000
  H   H5        1.0  0.20416814054995777  0.017004316752656155  0.39212279790888355  1.0000
  H   H6        1.0  0.29583186044662496  0.5170043167271698  0.10787720220726917  1.0000
  H   H7        1.0  0.7958318604209459  0.9829956831963714  0.6078772023253233  1.0000
  H   H8        1.0  0.7041681405242788  0.48299568322185765  0.8921227980269377  1.0000
  H   H9        1.0  0.16988190067340336  0.1241316893381642  0.21256567842329455  1.0000
  H   H10       1.0  0.3301180993009176  0.6241316893126779  0.2874343216947596  1.0000
  H   H11       1.0  0.8301180989699783  0.8758683106108633  0.7874343209496759  1.0000
  H   H12       1.0  0.6698819006477243  0.37586831063634957  0.7125656785413487  1.0000
  H   H13       1.0  0.0016012623648357983  0.18307567315217127  0.21725226599157577  1.0000
  H   H14       1.0  0.49839873760948517  0.683075673126685  0.28274773412647836  1.0000
  H   H15       1.0  0.9983987375838062  0.8169243267968563  0.7827477342445325  1.0000
  H   H16       1.0  0.5016012623391569  0.3169243268223425  0.71725226610963  1.0000
  H   H17       1.0  0.573717989240003  0.9011437406945505  0.6179271547145111  1.0000
  H   H18       1.0  0.9262820106829599  0.4011437407200368  0.8820728456396514  1.0000
  H   H19       1.0  0.426282010708639  0.09885625925447697  0.3820728455215972  1.0000
  H   H20       1.0  0.07371798926568193  0.5988562592289908  0.11792715459645692  1.0000
  H   H21       1.0  0.4100862722565978  0.9789945571631321  0.5530069479268639  1.0000
  H   H22       1.0  0.0899137274895158  0.4789945571886184  0.9469930521252475  1.0000
  H   H23       1.0  0.5899137276920442  0.02100544278589536  0.44699305230924435  1.0000
  H   H24       1.0  0.9100862724591262  0.5210054427604092  0.05300694811086071  1.0000
  H   H25       1.0  0.3156260735000306  0.7892717039692079  0.4520972751101825  1.0000
  H   H26       1.0  0.18437392647429043  0.28927170399469415  0.04790272500787166  1.0000
  H   H27       1.0  0.6843739264486114  0.21072829597981962  0.5479027251259257  1.0000
  H   H28       1.0  0.8156260734743516  0.7107282969276362  0.9520972752282366  1.0000
  H   H29       1.0  0.4857421538747603  0.7163875444833261  0.5038708040582973  1.0000
  H   H30       1.0  0.014257846893614966  0.21638754450881229  0.9961291959919127  1.0000
  H   H31       1.0  0.5142578470961434  0.28361245546570146  0.4961291961759096  1.0000
  H   H32       1.0  0.9857421530550269  0.7836124554402152  0.003870804244195448  1.0000
  H   H33       1.0  0.4528964250246152  0.9756350050647808  0.7641752303256357  1.0000
  H   H34       1.0  0.0471035747214984  0.4756350050902671  0.7358247697264757  1.0000
  H   H35       1.0  0.5471035749240267  0.02436499488424665  0.2358247699104725  1.0000
  H   H36       1.0  0.9528964252271437  0.5243649948587604  0.26417523050963254  1.0000
  H   H37       1.0  0.4643956198929516  0.7581849487449936  0.8642030560037914  1.0000
  H   H38       1.0  0.03560437985316202  0.25818494877047987  0.6357969440483202  1.0000
  H   H39       1.0  0.5356043800556904  0.2418150512040339  0.13579694423231697  1.0000
  H   H40       1.0  0.9643956197902197  0.7418150511785477  0.36420305532465025  1.0000
  H   H41       1.0  0.6128745164553828  0.783576702136185  0.8092357953498913  1.0000
  H   H42       1.0  0.88712548346758  0.2835767021616713  0.690764205004271  1.0000
  H   H43       1.0  0.3871254834932591  0.21642329781284245  0.1907642048862169  1.0000
  H   H44       1.0  0.1128745164810619  0.7164232977873563  0.3092357952318372  1.0000
  H   H45       1.0  0.5470244567712454  0.6030892727010763  0.6862779186027007  1.0000
  H   H46       1.0  0.9529755431517175  0.10308927272656246  0.8137220817514617  1.0000
  H   H47       1.0  0.4529755431773965  0.3969107272479513  0.3137220816334076  1.0000
  H   H48       1.0  0.04702445679692447  0.8969107272224651  0.18627791848464653  1.0000
  H   H49       1.0  0.4113140173829871  0.5696653878216058  0.753870249242875  1.0000
  H   H50       1.0  0.08868598236312647  0.06966538687378925  0.7461297508092364  1.0000
  H   H51       1.0  0.5886859825656549  0.4303346131007245  0.24612975099323317  1.0000
  H   H52       1.0  0.9113140172802552  0.9303346130752382  0.25387024856373397  1.0000
  H   H53       1.0  0.18447033526195433  0.663200507383969  0.6839533140623022  1.0000
  H   H54       1.0  0.31552966550642103  0.1632005074094553  0.816046685987908  1.0000
  H   H55       1.0  0.8155296643814273  0.3367994925650585  0.3160466853106682  1.0000
  H   H56       1.0  0.6844703354644827  0.8367994925395722  0.18395331424629896  1.0000
  H   H57       1.0  0.13332909541076357  0.7407610129415065  0.5466424086737947  1.0000
  H   H58       1.0  0.3666709053576117  0.24076101296699282  0.9533575913764154  1.0000
  H   H59       1.0  0.8666709055601401  0.25923898700752096  0.4533575915604122  1.0000
  H   H60       1.0  0.6333290945910302  0.7592389869820347  0.04664240885969285  1.0000
  H   H61       1.0  0.20454992077774176  0.946369721740561  0.6332299101360723  1.0000
  H   H62       1.0  0.29545007999063355  0.44636972176604717  0.8667700899141378  1.0000
  H   H63       1.0  0.7954500798879016  0.05363027820846664  0.3667700892349967  1.0000
  H   H64       1.0  0.7045499199580083  0.5536302781829804  0.13322991032197048  1.0000
  H   H65       1.0  0.22726461975756077  0.8677312872561385  0.7691773533313948  1.0000
  H   H66       1.0  0.2727353799885528  0.36773128728162463  0.7308226467207167  1.0000
  H   H67       1.0  0.7727353801910812  0.13226871269288915  0.23082264690471344  1.0000
  H   H68       1.0  0.7272646199600892  0.6322687126674029  0.2691773535153916  1.0000
  C   C1        1.0  0.13463062134593137  0.10256632298693202  0.3834832086495269  1.0000
  C   C2        1.0  0.36536937862838964  0.6025663229614457  0.11651679146852731  1.0000
  C   C3        1.0  0.8653693786027107  0.8974336769620954  0.6165167915865813  1.0000
  C   C4        1.0  0.634630621014992  0.39743367698758175  0.883483207904443  1.0000
  C   C5        1.0  0.20418110031485823  0.20292184907182037  0.4748198673619782  1.0000
  C   C6        1.0  0.29581889965946273  0.7029218490463341  0.025180132756075897  1.0000
  C   C7        1.0  0.7958188993285233  0.7970781508772071  0.5251801320109922  1.0000
  C   C8        1.0  0.7041811002891792  0.2970781509026934  0.9748198674800324  1.0000
  C   C9        1.0  0.17550573698559788  0.30767010372048403  0.3009939160300561  1.0000
  C   C10       1.0  0.3244942629887231  0.8076701036949977  0.19900608408799805  1.0000
  C   C11       1.0  0.8244942629630441  0.6923298962285435  0.6990060842060524  1.0000
  C   C12       1.0  0.6755057369599189  0.19232989625402974  0.8009939161481101  1.0000
  C   C13       1.0  0.11380481962171783  0.172500408583711  0.2681436115013469  1.0000
  C   C14       1.0  0.3861951803526031  0.6725004085582248  0.23185638861670724  1.0000
  C   C15       1.0  0.8861951803269241  0.8274995913653165  0.7318563887347614  1.0000
  C   C16       1.0  0.6138048195960388  0.3274995913908028  0.768143611619401  1.0000
  C   C17       1.0  0.4578681560435709  0.8919504122806283  0.600909578831996  1.0000
  C   C18       1.0  0.04213184472480444  0.3919504123061145  0.899090421218214  1.0000
  C   C19       1.0  0.5421318449273328  0.10804958766839927  0.3990904214022109  1.0000
  C   C20       1.0  0.9578681552238374  0.6080495876429131  0.10090957901789416  1.0000
  C   C21       1.0  0.40179083182802405  0.7676731012749142  0.5303560030162524  1.0000
  C   C22       1.0  0.09820916894035131  0.2676731013004004  0.9696439970339578  1.0000
  C   C23       1.0  0.5982091691428797  0.2323268986741133  0.4696439972179545  1.0000
  C   C24       1.0  0.9017908307030302  0.7323268986486271  0.030356002339012717  1.0000
  C   C25       1.0  0.42018719509130187  0.8853687520615844  0.7154011786006692  1.0000
  C   C26       1.0  0.07981280465481168  0.38536875208707067  0.7845988214514422  1.0000
  C   C27       1.0  0.5798128048573402  0.11463124788744311  0.2845988216354391  1.0000
  C   C28       1.0  0.9201871949885699  0.6146312488352597  0.21540117792152813  1.0000
  C   C29       1.0  0.49698317725130886  0.7686428067199643  0.784959737707408  1.0000
  C   C30       1.0  0.0030168235170664613  0.26864280674545055  0.715040262342802  1.0000
  C   C31       1.0  0.5030168237195949  0.23135719322906323  0.21504026252679884  1.0000
  C   C32       1.0  0.9969831764315755  0.731357193203577  0.28495973789330625  1.0000
  C   C33       1.0  0.4561085893033368  0.6447997581052873  0.7101073522435858  1.0000
  C   C34       1.0  0.04389141044277679  0.14479975813077353  0.7898926478085256  1.0000
  C   C35       1.0  0.5438914103400448  0.3552002418437402  0.28989264712938445  1.0000
  C   C36       1.0  0.9561085895058653  0.855200241818254  0.21010735242758274  1.0000
  C   C37       1.0  0.2183776809196418  0.7329941872427538  0.6282715040142457  1.0000
  C   C38       1.0  0.28162231882647176  0.23299418726824  0.8717284960378657  1.0000
  C   C39       1.0  0.7816223190290003  0.2670058127062737  0.37172849622186255  1.0000
  C   C40       1.0  0.7183776811221703  0.7670058126807875  0.12827150419824251  1.0000
  C   C41       1.0  0.25849044586356756  0.8660365890155124  0.688813925804218  1.0000
  C   C42       1.0  0.24150955357728568  0.36603658904099856  0.8111860733847557  1.0000
  C   C43       1.0  0.741509553779814  0.1339634109335152  0.31118607356875244  1.0000
  C   C44       1.0  0.7584904460660961  0.633963410908029  0.18881392598821473  1.0000
  N   N1        1.0  0.21993692677151094  0.31761296870598615  0.4200370305778656  1.0000
  N   N2        1.0  0.28006307320281  0.8176129686804999  0.07996296954018851  1.0000
  N   N3        1.0  0.7800630731771311  0.6823870312430413  0.5799629696582427  1.0000
  N   N4        1.0  0.719936926745832  0.18238703126852757  0.9200370306959198  1.0000
  N   N5        1.0  0.3447390986641456  0.675706844557681  0.6011890290759643  1.0000
  N   N6        1.0  0.15526090108196797  0.17570684458316724  0.8988109709761471  1.0000
  N   N7        1.0  0.6552609012844964  0.3242931553913465  0.39881097116014397  1.0000
  N   N8        1.0  0.8447390988666741  0.8242931553658603  0.10118902925996108  1.0000
  O   O1        1.0  0.18617712556094246  0.3950293962541704  0.2341083193837588  1.0000
  O   O2        1.0  0.3138228744133785  0.895029396228684  0.2658916807342953  1.0000
  O   O3        1.0  0.8138228743876995  0.6049706036948571  0.7658916808523495  1.0000
  O   O4        1.0  0.6861771252300031  0.10497060372034339  0.734108318638675  1.0000
  O   O5        1.0  0.2409806852677858  0.18545729831695656  0.5801013719355866  1.0000
  O   O6        1.0  0.2590193144783279  0.6854572982914704  0.9198986281165249  1.0000
  O   O7        1.0  0.7590193143755959  0.814542701632071  0.41989862743738376  1.0000
  O   O8        1.0  0.7409806854703141  0.3145427016575572  0.0801013721195834  1.0000
  Br  Br1       1.0  0.28258299411944104  0.4913162510400416  0.5060837413676327  1.0000
  Br  Br2       1.0  0.21741700562667265  0.9913162510145553  0.9939162586844789  1.0000
  Br  Br3       1.0  0.717417005829201  0.5086837489089859  0.4939162588684756  1.0000
  Br  Br4       1.0  0.782582994016709  0.008683748934472145  0.00608374068849159  1.0000
