data_image0
_chemical_formula_structural       H120C100N16O16Cl8I8
_chemical_formula_sum              "H120 C100 N16 O16 Cl8 I8"
_cell_length_a       13.02995131507639
_cell_length_b       19.171874571022702
_cell_length_c       11.581364936618977
_cell_angle_alpha    90.0
_cell_angle_beta     102.4331229284017
_cell_angle_gamma    90.0

_space_group_name_H-M_alt    "P 1"
_space_group_IT_number       1

loop_
  _space_group_symop_operation_xyz
  'x, y, z'

loop_
  _atom_site_type_symbol
  _atom_site_label
  _atom_site_symmetry_multiplicity
  _atom_site_fract_x
  _atom_site_fract_y
  _atom_site_fract_z
  _atom_site_occupancy
  H   H1        1.0  0.7308283268231025  0.4345402344010639  0.9961658105018584  1.0000
  H   H2        1.0  0.26917167293598204  0.9345402346351906  0.5038341896942833  1.0000
  H   H3        1.0  0.26917167282403015  0.5654597655455923  0.0038341898863499323  1.0000
  H   H4        1.0  0.7308283272969164  0.06545976531146554  0.4961658097980666  1.0000
  H   H5        1.0  0.6993198092653108  0.5140733074112876  0.06047823221254981  1.0000
  H   H6        1.0  0.30068019103501764  0.01407330717716078  0.439521768355981  1.0000
  H   H7        1.0  0.3006801911469695  0.4859266925353686  0.9395217681639143  1.0000
  H   H8        1.0  0.6993198093772626  0.9859266927694954  0.5604782320204832  1.0000
  H   H9        1.0  0.5786704991298143  0.44967874779602807  0.1507799643878272  1.0000
  H   H10       1.0  0.42132950022598487  0.9496787475085573  0.34922003530833373  1.0000
  H   H11       1.0  0.42132950051731843  0.5503212526722255  0.8492200360003812  1.0000
  H   H12       1.0  0.5786704992417662  0.050321252438098776  0.6507799641957605  1.0000
  H   H13       1.0  0.621840647010385  0.3707117894846979  0.09672244506981592  1.0000
  H   H14       1.0  0.37815935252479577  0.8707117897188246  0.40327755551045913  1.0000
  H   H15       1.0  0.37815935263674766  0.6292882104619583  0.9032775553183925  1.0000
  H   H16       1.0  0.6218406471223369  0.12928821022783152  0.5967224448777493  1.0000
  H   H17       1.0  0.46009507937101374  0.3506723296720049  0.9877296422196419  1.0000
  H   H18       1.0  0.5399049211532182  0.8506723293845343  0.5122703579647556  1.0000
  H   H19       1.0  0.5399049210412664  0.6493276702746512  0.012270358156822229  1.0000
  H   H20       1.0  0.4600950790796802  0.1493276705621219  0.4877296415275944  1.0000
  H   H21       1.0  0.13061159701493358  0.3460756435381826  0.8197875792776905  1.0000
  H   H22       1.0  0.8693884025647693  0.8460756437723095  0.680212420034337  1.0000
  H   H23       1.0  0.8693884032179648  0.6539243564084736  0.18021242021465933  1.0000
  H   H24       1.0  0.1306115969029817  0.15392435617434677  0.3197875794697573  1.0000
  H   H25       1.0  0.27721207601553466  0.31681824995770297  0.9907303418038695  1.0000
  H   H26       1.0  0.7227879237435499  0.8168182501918299  0.5092696583922722  1.0000
  H   H27       1.0  0.7227879234522164  0.6831817499889532  0.009269657700224743  1.0000
  H   H28       1.0  0.2772120766687302  0.1831817497548264  0.4907303419841919  1.0000
  H   H29       1.0  0.5001940940746049  0.40884169208195886  0.8104314465986979  1.0000
  H   H30       1.0  0.49980590627024546  0.9088416923160856  0.6895685527015855  1.0000
  H   H31       1.0  0.4998059061582936  0.5911583078646973  0.18956855289365207  1.0000
  H   H32       1.0  0.500194093962653  0.09115830763057053  0.3104314467907645  1.0000
  H   H33       1.0  0.0793428980835444  0.4405447145354161  0.6586598307231767  1.0000
  H   H34       1.0  0.9206571016755402  0.9405447142479456  0.8413401694729649  1.0000
  H   H35       1.0  0.9206571023287357  0.55945528541124  0.3413401696532873  1.0000
  H   H36       1.0  0.07934289779221086  0.059455285698710635  0.1586598300311292  1.0000
  H   H37       1.0  0.1712411626466805  0.461575879146175  0.5725583879109214  1.0000
  H   H38       1.0  0.8287588369330225  0.9615758788587044  0.9274416114011061  1.0000
  H   H39       1.0  0.8287588368210705  0.5384241208004812  0.42744161159317284  1.0000
  H   H40       1.0  0.17124116329987601  0.03842412108795178  0.07255838809124374  1.0000
  H   H41       1.0  0.35301120183146983  0.4401322134014919  0.6411280275077086  1.0000
  H   H42       1.0  0.646988797748233  0.9401322131140214  0.858871971804319  1.0000
  H   H43       1.0  0.6469887976362814  0.5598677870667617  0.35887197199638576  1.0000
  H   H44       1.0  0.3530112024846654  0.05986778683263486  0.1411280276880309  1.0000
  H   H45       1.0  0.1130032512070723  0.2679302392142652  0.4636215560277928  1.0000
  H   H46       1.0  0.8869967489138743  0.7679302394483919  0.0363784436566238  1.0000
  H   H47       1.0  0.8869967490258263  0.7320697607323909  0.5363784434645572  1.0000
  H   H48       1.0  0.1130032513190242  0.2320697610198616  0.9636215558357262  1.0000
  H   H49       1.0  0.21243700051119668  0.2872670692475854  0.5957735657937048  1.0000
  H   H50       1.0  0.787562999247888  0.7872670694817121  0.904226434402437  1.0000
  H   H51       1.0  0.7875629989565545  0.7127329306990707  0.4042264337103894  1.0000
  H   H52       1.0  0.21243700116439224  0.212732930464944  0.09577356597402714  1.0000
  H   H53       1.0  0.21922235756384084  0.3259562869999855  0.46002892066453654  1.0000
  H   H54       1.0  0.7807776427364874  0.8259562872341123  0.03997107990399426  1.0000
  H   H55       1.0  0.7807776428484394  0.6740437129466706  0.5399710797119276  1.0000
  H   H56       1.0  0.2192223569106453  0.17404371271254385  0.9600289204842142  1.0000
  H   H57       1.0  0.7727901890875777  0.1911825511074412  0.04933654652944602  1.0000
  H   H58       1.0  0.22720981103336904  0.6911825508199706  0.4506634531549705  1.0000
  H   H59       1.0  0.22720981114532088  0.8088174488392149  0.9506634529629038  1.0000
  H   H60       1.0  0.7727901891995294  0.3088174491266856  0.5493365463373794  1.0000
  H   H61       1.0  0.781698054140253  0.2784560049265554  0.09673953748908734  1.0000
  H   H62       1.0  0.21830194598069372  0.7784560046390848  0.40326046219532924  1.0000
  H   H63       1.0  0.2183019460926456  0.7215439950201007  0.9032604620032625  1.0000
  H   H64       1.0  0.7816980542522047  0.22154399530757138  0.5967395372970207  1.0000
  H   H65       1.0  0.6357705048711646  0.26111384369092283  0.19224733861639998  1.0000
  H   H66       1.0  0.364229495249782  0.7611138434034522  0.30775266106801663  1.0000
  H   H67       1.0  0.3642294945965865  0.7388861562557334  0.8077526608876944  1.0000
  H   H68       1.0  0.6357705049831165  0.23888615654320394  0.6922473384243333  1.0000
  H   H69       1.0  0.6231504756398684  0.17483251142620002  0.1387275395419804  1.0000
  H   H70       1.0  0.3768495244810782  0.6748325116603269  0.3612724601424362  1.0000
  H   H71       1.0  0.37684952459303006  0.8251674885204562  0.8612724599503695  1.0000
  H   H72       1.0  0.6231504757518203  0.32516748828632935  0.6387275393499138  1.0000
  H   H73       1.0  0.4159237924476836  0.9494249090024701  0.983928581615216  1.0000
  H   H74       1.0  0.584076207311401  0.44942490928994083  0.5160714185809258  1.0000
  H   H75       1.0  0.5840762071994491  0.050575090944185996  0.016071418772992434  1.0000
  H   H76       1.0  0.4159237923357317  0.5505750906567154  0.4839285818072826  1.0000
  H   H77       1.0  0.18286904277455399  0.06055121817637023  0.5297499905722632  1.0000
  H   H78       1.0  0.817130957749678  0.560551218410497  0.9702500096121341  1.0000
  H   H79       1.0  0.8171309576377261  0.9394487817702859  0.47025000980420084  1.0000
  H   H80       1.0  0.18286904266260212  0.4394487815361591  0.029749990764329923  1.0000
  H   H81       1.0  0.08105897802535662  0.014802153485237507  0.5725609660789652  1.0000
  H   H82       1.0  0.9189410223194938  0.5148021531977669  0.927439033221318  1.0000
  H   H83       1.0  0.9189410222075418  0.985197846983016  0.42743903341338474  1.0000
  H   H84       1.0  0.08105897791340476  0.48519784674888927  0.07256096627103185  1.0000
  H   H85       1.0  0.09808588364725307  0.9841181481813513  0.7900341265052757  1.0000
  H   H86       1.0  0.9019141161118315  0.484118148468822  0.7099658736908661  1.0000
  H   H87       1.0  0.9019141159998797  0.01588185176530485  0.20996587388293284  1.0000
  H   H88       1.0  0.0980858843004486  0.5158818519994316  0.2900341266855979  1.0000
  H   H89       1.0  0.3584117679724011  0.061283658290558346  0.6532961249289484  1.0000
  H   H90       1.0  0.6415882323724492  0.5612836580030878  0.8467038743713349  1.0000
  H   H91       1.0  0.6415882322604973  0.9387163416560979  0.3467038745634015  1.0000
  H   H92       1.0  0.35841176786044926  0.4387163419435684  0.15329612512101506  1.0000
  H   H93       1.0  0.22426822659125817  0.9350738214767957  0.965649318252229  1.0000
  H   H94       1.0  0.7757317739329739  0.43507382124266886  0.5343506819321685  1.0000
  H   H95       1.0  0.775731773821022  0.06492617899145789  0.034350682124235137  1.0000
  H   H96       1.0  0.22426822647930628  0.5649261787039873  0.46564931844429563  1.0000
  H   H97       1.0  0.48347334762185395  0.013004647462947602  0.8271879965992881  1.0000
  H   H98       1.0  0.5165266521372306  0.5130046476970744  0.6728120035968537  1.0000
  H   H99       1.0  0.5165266520252788  0.9869953524837085  0.17281200378892042  1.0000
  H   H100      1.0  0.48347334827504945  0.48699535224958174  0.32718799677961036  1.0000
  H   H101      1.0  0.08806226848050218  0.20933898170114665  0.7179147225622321  1.0000
  H   H102      1.0  0.9119377310992007  0.7093389819352734  0.7820852767497953  1.0000
  H   H103      1.0  0.9119377309872488  0.7906610182455096  0.2820852769418621  1.0000
  H   H104      1.0  0.08806226913369775  0.2906610180113828  0.2179147227425545  1.0000
  H   H105      1.0  0.20387176015035785  0.19810871211001221  0.6616539003308349  1.0000
  H   H106      1.0  0.7961282394293451  0.6981087123441391  0.8383460989811926  1.0000
  H   H107      1.0  0.7961282400825407  0.801891287836644  0.33834609916151503  1.0000
  H   H108      1.0  0.20387176003840596  0.30189128760251716  0.16165390052290154  1.0000
  H   H109      1.0  0.1892701002760629  0.14615112255298524  0.78197795476927  1.0000
  H   H110      1.0  0.8107298994830217  0.6461511227871121  0.7180220454268718  1.0000
  H   H111      1.0  0.8107298993710699  0.8538488773936709  0.21802204561893848  1.0000
  H   H112      1.0  0.18927010092925844  0.35384887715954416  0.2819779549495923  1.0000
  H   H113      1.0  0.5219229234411764  0.2596016133718376  0.8939601912761854  1.0000
  H   H114      1.0  0.47807707631790824  0.7596016136059645  0.6060398089199563  1.0000
  H   H115      1.0  0.47807707697110374  0.7403983865748186  0.10603980910027873  1.0000
  H   H116      1.0  0.5219229233292244  0.2403983863406918  0.39396019146825206  1.0000
  H   H117      1.0  0.557660958504179  0.17142990831828078  0.8610504056465437  1.0000
  H   H118      1.0  0.44233904202005314  0.6714299080308102  0.6389495945378538  1.0000
  H   H119      1.0  0.4423390419081012  0.8285700916283754  0.13894959472992044  1.0000
  H   H120      1.0  0.5576609582128454  0.328570091915846  0.3610504049544962  1.0000
  C   C1        1.0  0.8283981967863926  0.457874432021789  0.16663832868219935  1.0000
  C   C2        1.0  0.1716018025694066  0.9578744317343184  0.3333616710139615  1.0000
  C   C3        1.0  0.17160180268135847  0.5421255679248671  0.8333616708218948  1.0000
  C   C4        1.0  0.8283981968983444  0.04212556821233773  0.6666383284901327  1.0000
  C   C5        1.0  0.7228851711143409  0.45957797644458454  0.07918737673962142  1.0000
  C   C6        1.0  0.27711482842083984  0.9595779766787114  0.42081262384065365  1.0000
  C   C7        1.0  0.2771148285327917  0.5404220235020717  0.9208126236485868  1.0000
  C   C8        1.0  0.7228851712262929  0.040422023267944855  0.5791873765475547  1.0000
  C   C9        1.0  0.6485730376657916  0.4200631857967763  0.14160095092072056  1.0000
  C   C10       1.0  0.35142696186938926  0.9200631855093057  0.3583990496595545  1.0000
  C   C11       1.0  0.35142696198134116  0.5799368141498799  0.8583990494674878  1.0000
  C   C12       1.0  0.6485730377777434  0.07993681443735048  0.6416009507286539  1.0000
  C   C13       1.0  0.7159070628999236  0.40298073521080163  0.2628791821142803  1.0000
  C   C14       1.0  0.2840929364558755  0.902980734923331  0.23712081758188056  1.0000
  C   C15       1.0  0.28409293656782747  0.597019265257452  0.737120817389814  1.0000
  C   C16       1.0  0.7159070631912571  0.09701926502332517  0.7628791828063277  1.0000
  C   C17       1.0  0.16278532813165483  0.308903672307099  0.5137810378446868  1.0000
  C   C18       1.0  0.8372146716274298  0.8089036720196283  0.986218962351455  1.0000
  C   C19       1.0  0.8372146713360963  0.6910963276395572  0.48621896165940753  1.0000
  C   C20       1.0  0.16278532878485036  0.19109632792702783  0.013781038025009086  1.0000
  C   C21       1.0  0.14382417195957395  0.41847959730168527  0.6221469662083475  1.0000
  C   C22       1.0  0.8561758277995106  0.9184795975358121  0.8778530339877941  1.0000
  C   C23       1.0  0.8561758282733245  0.5815204026449708  0.37785303328400227  1.0000
  C   C24       1.0  0.14382417184762208  0.08152040241084411  0.12214696640041427  1.0000
  C   C25       1.0  0.23283754550900487  0.39606814669427187  0.7210476396186978  1.0000
  C   C26       1.0  0.7671624550152272  0.8960681469283986  0.7789523605656998  1.0000
  C   C27       1.0  0.7671624549032752  0.6039318532523843  0.2789523607577664  1.0000
  C   C28       1.0  0.23283754539705298  0.10393185301825751  0.22104763981076436  1.0000
  C   C29       1.0  0.33684786375565956  0.4130894217287555  0.718328737791722  1.0000
  C   C30       1.0  0.663152136003425  0.913089421441285  0.7816712624044196  1.0000
  C   C31       1.0  0.6631521366566206  0.5869105782179006  0.281671262584742  1.0000
  C   C32       1.0  0.336847863464326  0.08691057850537129  0.21832873709967454  1.0000
  C   C33       1.0  0.4190570306727975  0.3964673924733763  0.8133635172936206  1.0000
  C   C34       1.0  0.5809429690862871  0.8964673921859057  0.6866364829025212  1.0000
  C   C35       1.0  0.5809429695601009  0.6035326074732799  0.1866364821987294  1.0000
  C   C36       1.0  0.4190570305608456  0.10353260776075049  0.31336351748568714  1.0000
  C   C37       1.0  0.3969157625046964  0.3628367494388905  0.9121325709532307  1.0000
  C   C38       1.0  0.6030842372543882  0.8628367496730174  0.5878674292429108  1.0000
  C   C39       1.0  0.6030842379075837  0.6371632505077657  0.08786742942323322  1.0000
  C   C40       1.0  0.39691576221336283  0.1371632502736389  0.4121325702611833  1.0000
  C   C41       1.0  0.29357566993972517  0.3440181457252342  0.9140027045360541  1.0000
  C   C42       1.0  0.7064243298193594  0.8440181454377637  0.5859972956600875  1.0000
  C   C43       1.0  0.7064243297074075  0.655981854221422  0.08599729585215422  1.0000
  C   C44       1.0  0.2935756705929208  0.15598185450889257  0.4140027047163766  1.0000
  C   C45       1.0  0.21160777449511703  0.36017508326686537  0.8187912852395729  1.0000
  C   C46       1.0  0.7883922252639676  0.8601750829793948  0.6812087149565688  1.0000
  C   C47       1.0  0.788392224972634  0.6398249166797909  0.18120871426452123  1.0000
  C   C48       1.0  0.21160777438316516  0.13982491696726143  0.31879128543163965  1.0000
  C   C49       1.0  0.7279250755719744  0.1868123149216361  0.3084006442024036  1.0000
  C   C50       1.0  0.27207492454897225  0.6868123151557629  0.19159935548201298  1.0000
  C   C51       1.0  0.27207492466092414  0.81318768502502  0.6915993552899463  1.0000
  C   C52       1.0  0.7279250756839263  0.31318768531249064  0.808400644010337  1.0000
  C   C53       1.0  0.6800574993783465  0.21328834094191915  0.1843401511279643  1.0000
  C   C54       1.0  0.3199425009219818  0.7132883406544486  0.3156598494405664  1.0000
  C   C55       1.0  0.3199425010339336  0.7867116595263344  0.8156598492484997  1.0000
  C   C56       1.0  0.6800574994902984  0.2867116592922076  0.6843401509358976  1.0000
  C   C57       1.0  0.7740268201669417  0.224717453895286  0.12663762890136002  1.0000
  C   C58       1.0  0.2259731791888575  0.7247174541294128  0.37336237079480084  1.0000
  C   C59       1.0  0.22597317930080937  0.7752825460513701  0.873362370602734  1.0000
  C   C60       1.0  0.7740268202788935  0.27528254581724343  0.6266376287092934  1.0000
  C   C61       1.0  0.8687527725689222  0.2062210090804437  0.22350199608622937  1.0000
  C   C62       1.0  0.131247227731406  0.7062210087929731  0.2764980044823014  1.0000
  C   C63       1.0  0.1312472278433579  0.7937789913878098  0.7764980042902347  1.0000
  C   C64       1.0  0.8687527726808741  0.2937789911536831  0.7235019958941629  1.0000
  C   C65       1.0  0.14394377685007567  0.16991072458420703  0.7002848457058225  1.0000
  C   C66       1.0  0.856056222909009  0.6699107242967364  0.7997151544903192  1.0000
  C   C67       1.0  0.8560562233828228  0.8300892753624491  0.2997151537865274  1.0000
  C   C68       1.0  0.14394377673812378  0.33008927564991974  0.20028484589788917  1.0000
  C   C69       1.0  0.14312315839143222  0.053493831090993406  0.6044028920375017  1.0000
  C   C70       1.0  0.8568768421327998  0.5534938308035228  0.8955971081468957  1.0000
  C   C71       1.0  0.8568768418414663  0.9465061688556627  0.3955971074548483  1.0000
  C   C72       1.0  0.14312315827948033  0.4465061691431334  0.1044028922295683  1.0000
  C   C73       1.0  0.22014138688973145  0.02612705023415349  0.7109770744631733  1.0000
  C   C74       1.0  0.7798586128693531  0.5261270499466828  0.7890229257329685  1.0000
  C   C75       1.0  0.7798586127574014  0.9738729497125027  0.28902292592503515  1.0000
  C   C76       1.0  0.220141387542927  0.4738729499999733  0.21097707464349558  1.0000
  C   C77       1.0  0.1826953500263197  0.990734764596719  0.7996558677058436  1.0000
  C   C78       1.0  0.8173046504979123  0.4907347643625922  0.7003441324785539  1.0000
  C   C79       1.0  0.8173046503859603  0.009265235349937116  0.20034413267062054  1.0000
  C   C80       1.0  0.1826953499143678  0.509265235584064  0.2996558678979102  1.0000
  C   C81       1.0  0.2531127789072703  0.9635943669234287  0.8975495277355926  1.0000
  C   C82       1.0  0.7468872208518142  0.4635943666893018  0.6024504724605492  1.0000
  C   C83       1.0  0.7468872207398624  0.03640563302322752  0.10245047265261582  1.0000
  C   C84       1.0  0.25311277956046585  0.5364056332573544  0.39754952791591497  1.0000
  C   C85       1.0  0.36140624925898507  0.9713935839194547  0.9077648129138204  1.0000
  C   C86       1.0  0.6385937512652469  0.4713935842069253  0.5922351872705772  1.0000
  C   C87       1.0  0.6385937511532951  0.028606416027201462  0.09223518746264382  1.0000
  C   C88       1.0  0.36140624914703323  0.5286064157397309  0.40776481310588697  1.0000
  C   C89       1.0  0.39910909172111725  0.006516825443289724  0.8197207006051423  1.0000
  C   C90       1.0  0.6008909088031148  0.5065168251558191  0.6802792995792551  1.0000
  C   C91       1.0  0.6008909085117812  0.9934831750249639  0.18027929888720756  1.0000
  C   C92       1.0  0.39910909160916536  0.4934831747908371  0.319720700797209  1.0000
  C   C93       1.0  0.3287021140266869  0.03379678693388385  0.7218906450472325  1.0000
  C   C94       1.0  0.6712978864975452  0.5337967866464133  0.7781093551371648  1.0000
  C   C95       1.0  0.6712978863855933  0.9662032130127722  0.2781093553292316  1.0000
  C   C96       1.0  0.32870211373535335  0.4662032133002429  0.22189064435518502  1.0000
  C   C97       1.0  0.4933487020193442  0.20772366339279472  0.8637995672982074  1.0000
  C   C98       1.0  0.506651298325506  0.7077236631053241  0.6362004320020759  1.0000
  C   C99       1.0  0.5066512982135543  0.7922763365538614  0.13620043219414257  1.0000
  C   C100      1.0  0.4933487019073924  0.2922763368413321  0.363799567490274  1.0000
  N   N1        1.0  0.8178758910090225  0.4220413345614945  0.2666682668176518  1.0000
  N   N2        1.0  0.1821241091119242  0.9220413347956213  0.23333173286676478  1.0000
  N   N3        1.0  0.1821241092238761  0.5779586653851617  0.7333317326746981  1.0000
  N   N4        1.0  0.8178758911209741  0.07795866515103492  0.7666682666255851  1.0000
  N   N5        1.0  0.09958771508347447  0.3645202045376831  0.5387982126264059  1.0000
  N   N6        1.0  0.9004122854407575  0.8645202042502126  0.9612017875579913  1.0000
  N   N7        1.0  0.9004122853288057  0.635479795408973  0.4612017877500581  1.0000
  N   N8        1.0  0.09958771479214093  0.13547979569644372  0.038798211934358444  1.0000
  N   N9        1.0  0.8357429900765109  0.18584527385680344  0.3234079916055664  1.0000
  N   N10       1.0  0.1642570092792883  0.6858452740909302  0.17659200809059444  1.0000
  N   N11       1.0  0.16425700957062186  0.8141547260898527  0.676592008782642  1.0000
  N   N12       1.0  0.8357429901884628  0.31415472585572596  0.8234079914134997  1.0000
  N   N13       1.0  0.09154197926987588  0.11856322299519119  0.6206906110955638  1.0000
  N   N14       1.0  0.9084580212543562  0.6185632227077206  0.8793093890888337  1.0000
  N   N15       1.0  0.9084580211424043  0.8814367769514649  0.37930938928090036  1.0000
  N   N16       1.0  0.09154197897854233  0.3814367772389356  0.1206906104035163  1.0000
  O   O1        1.0  0.9113569700038686  0.484509110237961  0.15338918765940643  1.0000
  O   O2        1.0  0.08864303011707807  0.9845091104720878  0.34661081202501015  1.0000
  O   O3        1.0  0.08864302946388253  0.5154908897086952  0.8466108118446878  1.0000
  O   O4        1.0  0.9113569701158203  0.015490889996165746  0.6533891874673396  1.0000
  O   O5        1.0  0.6858245487736132  0.37577163324909535  0.3468145521864378  1.0000
  O   O6        1.0  0.3141754513473335  0.8757716329616247  0.15318544749797874  1.0000
  O   O7        1.0  0.3141754514592854  0.6242283666975609  0.6531854473059121  1.0000
  O   O8        1.0  0.6858245481204175  0.12422836698503141  0.8468145520061154  1.0000
  O   O9        1.0  0.9622348745180961  0.20808184432990448  0.2165622561039435  1.0000
  O   O10       1.0  0.037765124837702994  0.7080818440424338  0.28343774359221735  1.0000
  O   O11       1.0  0.03776512512903656  0.7919181556167517  0.7834377442842649  1.0000
  O   O12       1.0  0.9622348746300481  0.29191815590422227  0.7165622559118768  1.0000
  O   O13       1.0  0.679057533055151  0.16890893365714613  0.3840288639774519  1.0000
  O   O14       1.0  0.32094246630064815  0.6689089333696755  0.11597113571870898  1.0000
  O   O15       1.0  0.32094246659198167  0.8310910668111074  0.6159711364107565  1.0000
  O   O16       1.0  0.6790575331671029  0.3310910665769807  0.8840288637853853  1.0000
  Cl  Cl1       1.0  0.4188001926757787  0.1738395662695082  0.9626106712811987  1.0000
  Cl  Cl2       1.0  0.5811998070833059  0.6738395659820376  0.5373893289149431  1.0000
  Cl  Cl3       1.0  0.5811998067919724  0.826160433677148  0.03738932822289563  1.0000
  Cl  Cl4       1.0  0.4188001933289742  0.32616043396461863  0.46261067146152096  1.0000
  Cl  Cl5       1.0  0.41915347702622807  0.21693642604392124  0.7165612144806115  1.0000
  Cl  Cl6       1.0  0.5808465233186222  0.7169364262780481  0.7834387848196718  1.0000
  Cl  Cl7       1.0  0.5808465232066704  0.783063573902735  0.2834387850117385  1.0000
  Cl  Cl8       1.0  0.4191534769142762  0.2830635736686082  0.21656121467267808  1.0000
  I   I1        1.0  0.9576960270946421  0.38966265360881147  0.41305805039756144  1.0000
  I   I2        1.0  0.042303973026304405  0.8896626533213408  0.08694194928685513  1.0000
  I   I3        1.0  0.04230397313825626  0.6103373468594421  0.5869419490947884  1.0000
  I   I4        1.0  0.9576960272065941  0.11033734662531532  0.9130580502054949  1.0000
  I   I5        1.0  0.9606044388120725  0.149906771471575  0.4815223115811549  1.0000
  I   I6        1.0  0.039395561488255806  0.6499067717057018  0.018477688987375902  1.0000
  I   I7        1.0  0.03939556160020769  0.8500932284750812  0.5184776887953093  1.0000
  I   I8        1.0  0.9606044381588769  0.35009322824095435  0.9815223114008323  1.0000
