data_image0
_chemical_formula_structural       H16C18NO8Cl3
_chemical_formula_sum              "H16 C18 N1 O8 Cl3"
_cell_length_a       4.391707571067675
_cell_length_b       10.463102227470603
_cell_length_c       11.254280690544222
_cell_angle_alpha    79.76958557675228
_cell_angle_beta     81.58995232157301
_cell_angle_gamma    83.0664726746412

_space_group_name_H-M_alt    "P 1"
_space_group_IT_number       1

loop_
  _space_group_symop_operation_xyz
  'x, y, z'

loop_
  _atom_site_type_symbol
  _atom_site_label
  _atom_site_symmetry_multiplicity
  _atom_site_fract_x
  _atom_site_fract_y
  _atom_site_fract_z
  _atom_site_occupancy
  H   H1        1.0  0.30315247080798563  0.4343769896352201  0.515243823766348  1.0000
  H   H2        1.0  0.8829016351659187  0.5431430898143196  0.7760094435054359  1.0000
  H   H3        1.0  0.09639745310680274  0.4081993387158646  0.9569887643479883  1.0000
  H   H4        1.0  0.4750928118676796  0.4024010627157008  0.8743356630155578  1.0000
  H   H5        1.0  0.1813960304862457  0.3233355832553285  0.8304461857863594  1.0000
  H   H6        1.0  0.10459939842608207  0.07323873056564427  0.8378253981304628  1.0000
  H   H7        1.0  0.6737543196154042  0.9401807924446745  0.5666655119762695  1.0000
  H   H8        1.0  0.8685564460391155  0.7161536091825605  0.6384867202881667  1.0000
  H   H9        1.0  0.69160537637062  0.5687758032006464  0.48057559361301133  1.0000
  H   H10       1.0  0.11718186625316318  0.4560032299760628  0.22309119661667925  1.0000
  H   H11       1.0  0.9075785681522069  0.5846430478768108  0.038922076268282146  1.0000
  H   H12       1.0  0.8278364954511649  0.6738942212740288  0.16228011858170768  1.0000
  H   H13       1.0  0.528315513334862  0.5960107303742415  0.12158041392895572  1.0000
  H   H14       1.0  0.9436082692411488  0.9243638170175988  0.15796827096833096  1.0000
  H   H15       1.0  0.3336669708662927  0.061975304143338676  0.4358727043383798  1.0000
  H   H16       1.0  0.12355487901235104  0.28615088369160735  0.36378736672526657  1.0000
  C   C1        1.0  0.2998846852673537  0.5231829782182935  0.6533290840205992  1.0000
  C   C2        1.0  0.13367474517406328  0.5327084398982923  0.7807180915994331  1.0000
  C   C3        1.0  0.22753772031593592  0.4088561306603287  0.8664280563228351  1.0000
  C   C4        1.0  0.10476025142431664  0.7638509680909019  0.7788256708058025  1.0000
  C   C5        1.0  0.16543967696050296  0.8670674412243229  0.8342413398844245  1.0000
  C   C6        1.0  0.057071036589071394  0.9954584149844661  0.7927882558282107  1.0000
  C   C7        1.0  0.8814520735005764  0.021669697507305276  0.6959757918822479  1.0000
  C   C8        1.0  0.8169833506371841  0.9211211098306095  0.64025019271596  1.0000
  C   C9        1.0  0.9302238082164448  0.7930198749609624  0.6813998072449637  1.0000
  C   C10       1.0  0.6987825805917167  0.4763234876064255  0.34479888708374823  1.0000
  C   C11       1.0  0.8669130062969006  0.46620460071102304  0.21771482349266358  1.0000
  C   C12       1.0  0.7762117980476686  0.5875865703756726  0.12904128204342766  1.0000
  C   C13       1.0  0.9050995893098064  0.23466925975802755  0.22048312731244724  1.0000
  C   C14       1.0  0.8540711879470829  0.1302157560127333  0.16363906867066816  1.0000
  C   C15       1.0  0.9756722427956562  0.004125026530691598  0.20349970775946796  1.0000
  C   C16       1.0  0.14928791068182368  0.9813336473281804  0.30098738897785104  1.0000
  C   C17       1.0  0.19867755945742918  0.08201098648942884  0.359911767487765  1.0000
  C   C18       1.0  0.07614273242176943  0.20806082129578835  0.3194438212606871  1.0000
  N   N1        1.0  0.29095996310249067  0.8500931416758615  0.3387034543827737  1.0000
  O   O1        1.0  0.17991238534578577  0.4429474263074054  0.5997131960714274  1.0000
  O   O2        1.0  0.5296822238244913  0.5819417304946175  0.6093281838741584  1.0000
  O   O3        1.0  0.2183172279474091  0.6405084770041517  0.8268067378851449  1.0000
  O   O4        1.0  0.8161098070348202  0.5573825004501866  0.3970471211050672  1.0000
  O   O5        1.0  0.47342119975737945  0.4143483823914036  0.3897893183265704  1.0000
  O   O6        1.0  0.786273524736018  0.3555210516965296  0.17310495683900018  1.0000
  O   O7        1.0  0.2482423869600929  0.7623300410821509  0.28316648832171193  1.0000
  O   O8        1.0  0.4514267931842823  0.8324545256132535  0.42378118474768667  1.0000
  Cl  Cl1       1.0  0.3655317439546689  0.8347365475874717  0.9589624031356354  1.0000
  Cl  Cl2       1.0  0.731997270149874  0.18103040326557868  0.6484663658556342  1.0000
  Cl  Cl3       1.0  0.6491410211686233  0.16061432814577484  0.040645170543491406  1.0000
