data_image0
_chemical_formula_structural       H68B44C32N4O8Cl20I24
_chemical_formula_sum              "H68 B44 C32 N4 O8 Cl20 I24"
_cell_length_a       14.361187223266795
_cell_length_b       12.57122351958619
_cell_length_c       17.95311718399766
_cell_angle_alpha    90.0
_cell_angle_beta     109.72004796863135
_cell_angle_gamma    90.0

_space_group_name_H-M_alt    "P 1"
_space_group_IT_number       1

loop_
  _space_group_symop_operation_xyz
  'x, y, z'

loop_
  _atom_site_type_symbol
  _atom_site_label
  _atom_site_symmetry_multiplicity
  _atom_site_fract_x
  _atom_site_fract_y
  _atom_site_fract_z
  _atom_site_occupancy
  H   H1        1.0  0.4169478267372871  0.191353455473297  0.8775743434848459  1.0000
  H   H2        1.0  0.08305217316110383  0.6913534554897556  0.6224256565648814  1.0000
  H   H3        1.0  0.5830521735278748  0.8086465445596203  0.12242565659335321  1.0000
  H   H4        1.0  0.9169478271040582  0.30864654454316165  0.37757434351331776  1.0000
  H   H5        1.0  0.6936642608402351  0.4630601978343965  0.5654436542359752  1.0000
  H   H6        1.0  0.806335738861141  0.9630601978508552  0.9345563458812152  1.0000
  H   H7        1.0  0.30633573942492687  0.5369398021985207  0.43455634584222386  1.0000
  H   H8        1.0  0.19366426070765416  0.036939802182062074  0.0654436541968757  1.0000
  H   H9        1.0  0.6896954063840999  0.3214243548931034  0.5576773482058596  1.0000
  H   H10       1.0  0.8103045937641764  0.821424354909562  0.9423226513197304  1.0000
  H   H11       1.0  0.31030459388106213  0.6785756451398138  0.44232265187233943  1.0000
  H   H12       1.0  0.18969540625151884  0.17857564512335522  0.05767734816676009  1.0000
  H   H13       1.0  0.5143947014886974  0.3647539336848048  0.49664523158443125  1.0000
  H   H14       1.0  0.9856052991432356  0.8647539337012635  0.0033547685222396506  1.0000
  H   H15       1.0  0.4856052987764646  0.6352460663481124  0.5033547684937678  1.0000
  H   H16       1.0  0.014394701121926251  0.13524606633165379  0.9966452315559592  1.0000
  H   H17       1.0  0.5424682746179227  0.48021992533935315  0.4503730692584169  1.0000
  H   H18       1.0  0.9575317253176435  0.9802199253558117  0.049626930848145845  1.0000
  H   H19       1.0  0.4575317249508725  0.5197800746935641  0.549626930819674  1.0000
  H   H20       1.0  0.04246827494751848  0.01978007467710551  0.9503730692300533  1.0000
  H   H21       1.0  0.5128924011431725  0.3526053373479363  0.3426590793865552  1.0000
  H   H22       1.0  0.9871075987923937  0.8526053373643949  0.15734092072000758  1.0000
  H   H23       1.0  0.4871075991219896  0.6473946626849809  0.6573409206916438  1.0000
  H   H24       1.0  0.012892401472768277  0.14739466266852227  0.8426590793581915  1.0000
  H   H25       1.0  0.5643576722376725  0.24728823691318236  0.40961520309936245  1.0000
  H   H26       1.0  0.9356423276978937  0.747288236929641  0.09038479700720034  1.0000
  H   H27       1.0  0.4356423280274894  0.752711763119735  0.5903847969788366  1.0000
  H   H28       1.0  0.06435767256726839  0.25271176310327625  0.9096152030709987  1.0000
  H   H29       1.0  0.7125301618407235  0.2866496951856456  0.3866532431080458  1.0000
  H   H30       1.0  0.7874698380948427  0.7866496952021041  0.11334675699851696  1.0000
  H   H31       1.0  0.2874698384244385  0.7133503048472717  0.6133467569701533  1.0000
  H   H32       1.0  0.21253016147395248  0.21335030483081305  0.8866532430795739  1.0000
  H   H33       1.0  0.6721795237068481  0.4179915965866916  0.3508838712860691  1.0000
  H   H34       1.0  0.8278204766756184  0.9179915966031503  0.14911612822889328  1.0000
  H   H35       1.0  0.32782047655831403  0.5820084034462257  0.6491161287921299  1.0000
  H   H36       1.0  0.17217952334007694  0.08200840342976704  0.8508838712575972  1.0000
  H   H37       1.0  0.4255238594833933  0.21621152593184267  0.016658821636807288  1.0000
  H   H38       1.0  0.07447614064918769  0.7162115259483014  0.4833411784022923  1.0000
  H   H39       1.0  0.5744761407817687  0.7837884741010746  0.9833411784413918  1.0000
  H   H40       1.0  0.9255238596159743  0.28378847408461594  0.5166588216759068  1.0000
  H   H41       1.0  0.4065155717005776  0.3247690022883622  0.9468740189192547  1.0000
  H   H42       1.0  0.09348442819781339  0.8247690023048209  0.5531259811304726  1.0000
  H   H43       1.0  0.5934844285645845  0.6752309977445551  0.05312598115894446  1.0000
  H   H44       1.0  0.9065155713709816  0.17523099772809642  0.44687401894761825  1.0000
  H   H45       1.0  0.502934874504422  0.4455944611335963  0.0485640276714627  1.0000
  H   H46       1.0  0.9970651254311442  0.945594461150055  0.4514359724351001  1.0000
  H   H47       1.0  0.4970651250643731  0.554405538899321  0.9514359724066282  1.0000
  H   H48       1.0  0.0029348748340178657  0.054405538882862335  0.548564027643099  1.0000
  H   H49       1.0  0.5718617301974956  0.3268115385585983  0.0800595611581567  1.0000
  H   H50       1.0  0.9281382697380706  0.826811538575057  0.41994043894840605  1.0000
  H   H51       1.0  0.4281382693712994  0.6731884614743189  0.9199404389199342  1.0000
  H   H52       1.0  0.0718617305270915  0.17318846145786032  0.580059561129793  1.0000
  H   H53       1.0  0.4925949875034508  0.43050881098152244  0.18074461315681625  1.0000
  H   H54       1.0  0.007405012629130195  0.930508810997981  0.31925538688228333  1.0000
  H   H55       1.0  0.5074050127617111  0.5694911890513948  0.8192553869213828  1.0000
  H   H56       1.0  0.9925949876360318  0.0694911890349362  0.6807446131959158  1.0000
  H   H57       1.0  0.4910848650847443  0.2895192432406775  0.17579344800017638  1.0000
  H   H58       1.0  0.008915134102003053  0.7895192432571361  0.3242065514471064  1.0000
  H   H59       1.0  0.5089151342345841  0.7104807567922398  0.8242065514862059  1.0000
  H   H60       1.0  0.9910848652173254  0.21048075677578112  0.6757934480392759  1.0000
  H   H61       1.0  0.3173070406689007  0.30462223458469345  0.13318687118854095  1.0000
  H   H62       1.0  0.18269295946368036  0.8046222346011521  0.3668131288505586  1.0000
  H   H63       1.0  0.6826929588998945  0.6953777654482238  0.86681312888955  1.0000
  H   H64       1.0  0.8173070408014815  0.1953777654317652  0.6331868712276404  1.0000
  H   H65       1.0  0.319605984852058  0.4414922995643859  0.10811128231534506  1.0000
  H   H66       1.0  0.18039401528052296  0.9414922995808445  0.3918887177237544  1.0000
  H   H67       1.0  0.6803940147167371  0.5585077004685313  0.8918887177627458  1.0000
  H   H68       1.0  0.819605984984639  0.05850770045207271  0.6081112823544446  1.0000
  B   B1        1.0  0.5520671921995549  0.24861372126035342  0.837152751409638  1.0000
  B   B2        1.0  0.9479328075018212  0.7486137212768119  0.6628472487075524  1.0000
  B   B3        1.0  0.44793280806560704  0.7513862787725638  0.1628472486685611  1.0000
  B   B4        1.0  0.052067192066973945  0.2513862787561052  0.33715275137053846  1.0000
  B   B5        1.0  0.5488510564709974  0.10317432252948236  0.8508087149571858  1.0000
  B   B6        1.0  0.9511489432303787  0.6031743225459409  0.6491912851600046  1.0000
  B   B7        1.0  0.4511489430977977  0.8968256775034349  0.14919128512090507  1.0000
  B   B8        1.0  0.04885105633841643  0.3968256774869763  0.3508087149180863  1.0000
  B   B9        1.0  0.42589023920284724  0.05368291630075277  0.7886464237395716  1.0000
  B   B10       1.0  0.07410976139191061  0.5536829163172114  0.7113535763102637  1.0000
  B   B11       1.0  0.5741097610623148  0.9463170837321644  0.21135357633862747  1.0000
  B   B12       1.0  0.9258902388732513  0.44631708371570583  0.2886464237679353  1.0000
  B   B13       1.0  0.35193713372512286  0.167796691922111  0.735361884760663  1.0000
  B   B14       1.0  0.1480628661732681  0.6677966919385697  0.7646381152890642  1.0000
  B   B15       1.0  0.6480628665400391  0.8322033081108062  0.26463811531753606  1.0000
  B   B16       1.0  0.8519371331460603  0.3322033080943476  0.23536188419731813  1.0000
  B   B17       1.0  0.4299709078358323  0.28718741770640643  0.7676888350911385  1.0000
  B   B18       1.0  0.07002909206255857  0.787187417722865  0.7323111649585887  1.0000
  B   B19       1.0  0.5700290917329627  0.7128125823265109  0.2323111649869523  1.0000
  B   B20       1.0  0.9299709082026034  0.21281258231005218  0.26768883511961045  1.0000
  B   B21       1.0  0.6057708702658567  0.16028726852725061  0.7869103438727154  1.0000
  B   B22       1.0  0.8942291294355194  0.6602872685437092  0.713089656244475  1.0000
  B   B23       1.0  0.3942291299993052  0.8397127315056666  0.21308965620548362  1.0000
  B   B24       1.0  0.10577087013327585  0.339712731489208  0.28691034383361597  1.0000
  B   B25       1.0  0.5301187299994393  0.04247829808832943  0.7579450833089217  1.0000
  B   B26       1.0  0.9698812703983035  0.5424782981047881  0.7420549168083769  1.0000
  B   B27       1.0  0.4698812702657226  0.9575217019445879  0.2420549167692773  1.0000
  B   B28       1.0  0.03011872986685839  0.4575217019281292  0.25794508326982224  1.0000
  B   B29       1.0  0.4111044366971873  0.08153673255455256  0.6886870983846413  1.0000
  B   B30       1.0  0.08889556320120362  0.5815367325710111  0.8113129016650859  1.0000
  B   B31       1.0  0.5888955635679747  0.9184632674783647  0.31131290169355774  1.0000
  B   B32       1.0  0.9111044363675914  0.41846326746190604  0.18868709841300502  1.0000
  B   B33       1.0  0.4140754764297135  0.22474827256058552  0.6758548490037859  1.0000
  B   B34       1.0  0.08592452346867749  0.7247482725770441  0.8241451510459413  1.0000
  B   B35       1.0  0.5859245231390815  0.7752517274723318  0.3241451510743049  1.0000
  B   B36       1.0  0.9140754767964846  0.2752517274558731  0.17585484903225782  1.0000
  B   B37       1.0  0.5336845269736775  0.27240435623983905  0.7366033559061311  1.0000
  B   B38       1.0  0.9663154727276985  0.7724043562562977  0.7633966442110591  1.0000
  B   B39       1.0  0.46631547259511763  0.7275956437930782  0.2633966441719596  1.0000
  B   B40       1.0  0.03368452684109646  0.22759564377661953  0.23660335586703166  1.0000
  B   B41       1.0  0.522092633384809  0.14611059354232706  0.6869388987798263  1.0000
  B   B42       1.0  0.9779073663165672  0.6461105935587856  0.8130611013373642  1.0000
  B   B43       1.0  0.47790736688035296  0.8538894064905901  0.3130611012983728  1.0000
  B   B44       1.0  0.022092633252228062  0.3538894064741316  0.18693889874072678  1.0000
  C   C1        1.0  0.6726518600298511  0.3963789827009635  0.5235959798967326  1.0000
  C   C2        1.0  0.8273481394220583  0.8963789827174221  0.9764040196287493  1.0000
  C   C3        1.0  0.3273481392894773  0.6036210173319537  0.47640401958964973  1.0000
  C   C4        1.0  0.17265186014673684  0.10362101731549511  0.02359598044934163  1.0000
  C   C5        1.0  0.5653217724131999  0.39831082409748014  0.46895570493113087  1.0000
  C   C6        1.0  0.9346782275223662  0.8983108241139388  0.031044295175431908  1.0000
  C   C7        1.0  0.4346782271555951  0.6016891759354371  0.5310442951469599  1.0000
  C   C8        1.0  0.06532177274279574  0.10168917591897848  0.9689557049027671  1.0000
  C   C9        1.0  0.5709201054643346  0.3324850801903159  0.3987500711083913  1.0000
  C   C10       1.0  0.9290798951675986  0.8324850802067745  0.10124992899827966  1.0000
  C   C11       1.0  0.4290798948008274  0.6675149198426014  0.6012499289698078  1.0000
  C   C12       1.0  0.07092010509756352  0.1675149198261427  0.8987500710799194  1.0000
  C   C13       1.0  0.6744390782543004  0.35864942286448287  0.39657937716966635  1.0000
  C   C14       1.0  0.8255609216812658  0.8586494228809416  0.1034206229368964  1.0000
  C   C15       1.0  0.3255609213144948  0.6413505771684344  0.6034206229084246  1.0000
  C   C16       1.0  0.17443907858389612  0.14135057715197577  0.8965793771413026  1.0000
  C   C17       1.0  0.4155203241409829  0.30334364066144026  0.008359397168694684  1.0000
  C   C18       1.0  0.08447967599159806  0.8033436406778989  0.49164060287040484  1.0000
  C   C19       1.0  0.5844796761241791  0.696656359371477  0.9916406029095043  1.0000
  C   C20       1.0  0.9155203242735639  0.19665635935501832  0.5083593972077942  1.0000
  C   C21       1.0  0.49925366143762834  0.363716396647962  0.0689395670276858  1.0000
  C   C22       1.0  0.0007463386949526718  0.8637163966644206  0.4310604330114138  1.0000
  C   C23       1.0  0.5007463388275336  0.6362836033849553  0.9310604330505132  1.0000
  C   C24       1.0  0.9992536615702092  0.1362836033684966  0.5689395670667853  1.0000
  C   C25       1.0  0.4652983107429469  0.3624421682504602  0.14128928451963335  1.0000
  C   C26       1.0  0.03470168938963403  0.8624421682669188  0.35871071551946615  1.0000
  C   C27       1.0  0.5347016895222151  0.637557831782457  0.8587107155585657  1.0000
  C   C28       1.0  0.965298310875528  0.13755783176599845  0.6412892845587329  1.0000
  C   C29       1.0  0.3519657750884346  0.36300652063739736  0.10503802919114809  1.0000
  C   C30       1.0  0.1480342250441464  0.863006520653856  0.3949619708479514  1.0000
  C   C31       1.0  0.6480342251767274  0.6369934793955199  0.894961970887051  1.0000
  C   C32       1.0  0.8519657752210156  0.1369934793790612  0.6050380292302476  1.0000
  N   N1        1.0  0.4426521137313637  0.18056309526781197  0.8309702324651078  1.0000
  N   N2        1.0  0.057347886167027184  0.6805630952842706  0.6690297675846194  1.0000
  N   N3        1.0  0.5573478865337982  0.8194369047651053  0.16902976761309124  1.0000
  N   N4        1.0  0.9426521140981349  0.3194369047486466  0.33097023249357976  1.0000
  O   O1        1.0  0.7303738218835338  0.4043150662368709  0.47208073451782034  1.0000
  O   O2        1.0  0.7696261780520324  0.9043150662533296  0.027919265588742432  1.0000
  O   O3        1.0  0.26962617768526126  0.5956849337960464  0.5279192655602706  1.0000
  O   O4        1.0  0.23037382221312974  0.0956849337795877  0.9720807344894566  1.0000
  O   O5        1.0  0.3270162186026396  0.33593392189871846  0.022019631447020127  1.0000
  O   O6        1.0  0.17298378152994143  0.8359339219151771  0.47798036859207943  1.0000
  O   O7        1.0  0.6729837816625224  0.6640660781341988  0.977980368631179  1.0000
  O   O8        1.0  0.8270162184857539  0.16406607811774013  0.5220196308944112  1.0000
  Cl  Cl1       1.0  0.6066469267426446  0.32893753289465955  0.9192260288375488  1.0000
  Cl  Cl2       1.0  0.8933530727092647  0.8289375329111182  0.580773970687933  1.0000
  Cl  Cl3       1.0  0.3933530725766838  0.6710624671382577  0.08077397064883356  1.0000
  Cl  Cl4       1.0  0.10664692755589722  0.17106246712179907  0.41922602939026593  1.0000
  Cl  Cl5       1.0  0.5999969054209798  0.05096218192301211  0.9454215524742658  1.0000
  Cl  Cl6       1.0  0.9000030940309297  0.5509621819394708  0.5545784470512161  1.0000
  Cl  Cl7       1.0  0.40000309389834854  0.9490378181099051  0.054578447012116484  1.0000
  Cl  Cl8       1.0  0.09999690623423244  0.4490378180934465  0.44542155302698305  1.0000
  Cl  Cl9       1.0  0.3700341723871264  0.9597579218285316  0.831263172811467  1.0000
  Cl  Cl10      1.0  0.1299658275112645  0.4597579218120729  0.6687368272382601  1.0000
  Cl  Cl11      1.0  0.6299658278780357  0.040242078204385676  0.1687368272667321  1.0000
  Cl  Cl12      1.0  0.8700341720575305  0.5402420782208444  0.33126317283983076  1.0000
  Cl  Cl13      1.0  0.22826538280231345  0.17740913416464443  0.7275399646332135  1.0000
  Cl  Cl14      1.0  0.27173461684661077  0.6774091341811032  0.7724600348248051  1.0000
  Cl  Cl15      1.0  0.7717346172133819  0.8225908658682728  0.272460034853277  1.0000
  Cl  Cl16      1.0  0.7282653831690844  0.32259086585181423  0.2275399646616854  1.0000
  Cl  Cl17      1.0  0.37456619827919074  0.4012803481013958  0.7889384500148674  1.0000
  Cl  Cl18      1.0  0.1254338016192002  0.9012803481178543  0.7110615500348598  1.0000
  Cl  Cl19      1.0  0.6254338012896045  0.5987196519315215  0.21106155006322352  1.0000
  Cl  Cl20      1.0  0.8745661986459617  0.09871965191506285  0.2889384500433392  1.0000
  I   I1        1.0  0.7649223031918719  0.16101931024026778  0.8224933884105943  1.0000
  I   I2        1.0  0.7350776965095042  0.6610193102567264  0.677506611706596  1.0000
  I   I3        1.0  0.23507769707329013  0.8389806889971819  0.17750661166760479  1.0000
  I   I4        1.0  0.2649223030592909  0.3389806889807233  0.32249338837149477  1.0000
  I   I5        1.0  0.5953487197670274  0.8900898629768638  0.7542322450196737  1.0000
  I   I6        1.0  0.9046512806307154  0.39008986296040526  0.7457677550976248  1.0000
  I   I7        1.0  0.40465128049813454  0.10991013705605338  0.24576775505852536  1.0000
  I   I8        1.0  0.09534871963444642  0.609910137072512  0.2542322449805741  1.0000
  I   I9        1.0  0.31805967121271556  0.9776926343605875  0.5985674050860988  1.0000
  I   I10       1.0  0.18194032868567536  0.477692634344129  0.9014325949636283  1.0000
  I   I11       1.0  0.6819403290524464  0.022307365672329642  0.4014325949921002  1.0000
  I   I12       1.0  0.8180596708831198  0.5223073656887882  0.09856740511446259  1.0000
  I   I13       1.0  0.3301530657423777  0.3064065278927436  0.569601609759087  1.0000
  I   I14       1.0  0.16984693485238012  0.8064065279092022  0.9303983902907483  1.0000
  I   I15       1.0  0.6698469345227843  0.6935934721401738  0.430398390319112  1.0000
  I   I16       1.0  0.8301530654127819  0.19359347212371503  0.06960160978745078  1.0000
  I   I17       1.0  0.6032068485243319  0.4113557659636795  0.7098145047910286  1.0000
  I   I18       1.0  0.896793151873411  0.911355765980138  0.7901854953262699  1.0000
  I   I19       1.0  0.39679315174083  0.5886442332737702  0.29018549528717036  1.0000
  I   I20       1.0  0.10320684839175094  0.0886442332573116  0.2098145047519291  1.0000
  I   I21       1.0  0.5724950704104442  0.11964789566079653  0.5887102532821654  1.0000
  I   I22       1.0  0.9275049292909318  0.6196478956772552  0.911289746835025  1.0000
  I   I23       1.0  0.4275049291583508  0.8803521043721207  0.41128974679592545  1.0000
  I   I24       1.0  0.0724950702778633  0.3803521043556621  0.08871025324306592  1.0000
