data_image0
_chemical_formula_structural       H4C8O4S6I6
_chemical_formula_sum              "H4 C8 O4 S6 I6"
_cell_length_a       5.938453108331981
_cell_length_b       7.910369311097314
_cell_length_c       12.569941576895879
_cell_angle_alpha    99.24963738928648
_cell_angle_beta     98.94769514442021
_cell_angle_gamma    99.24229684153482

_space_group_name_H-M_alt    "P 1"
_space_group_IT_number       1

loop_
  _space_group_symop_operation_xyz
  'x, y, z'

loop_
  _atom_site_type_symbol
  _atom_site_label
  _atom_site_symmetry_multiplicity
  _atom_site_fract_x
  _atom_site_fract_y
  _atom_site_fract_z
  _atom_site_occupancy
  H   H1        1.0  0.4883518481364447  0.4204085111577901  0.7145188934761543  1.0000
  H   H2        1.0  0.511648151743647  0.5795914877483874  0.2854811061858029  1.0000
  H   H3        1.0  0.8004990692643822  0.5038387824449739  0.4883890483943328  1.0000
  H   H4        1.0  0.19950093088660362  0.49616121774165967  0.5116109512665284  1.0000
  C   C1        1.0  0.9044569031591072  0.2913923985204102  0.9136827993295588  1.0000
  C   C2        1.0  0.09554309563174193  0.70860760191448  0.08631720115192805  1.0000
  C   C3        1.0  0.6406719324181639  0.38636845217607596  0.7605257434447065  1.0000
  C   C4        1.0  0.359328067732822  0.6136315480105576  0.23947425621615476  1.0000
  C   C5        1.0  0.847601519661512  0.38772713447473517  0.7268385313930544  1.0000
  C   C6        1.0  0.15239847853430605  0.6122728644294766  0.2731614682691604  1.0000
  C   C7        1.0  0.913363255862692  0.4391714042760812  0.6266598495279563  1.0000
  C   C8        1.0  0.08663674461243098  0.5608285961607751  0.373340150953273  1.0000
  O   O1        1.0  0.7438791794902858  0.4711611541544505  0.5578379662535525  1.0000
  O   O2        1.0  0.2561208206607001  0.5288388460321832  0.4421620334073086  1.0000
  O   O3        1.0  0.12058125359165545  0.4498300426571155  0.6151364628872872  1.0000
  O   O4        1.0  0.8794187448750566  0.5501699575275522  0.38486353677383156  1.0000
  S   S1        1.0  0.023093187332868453  0.22634202831852357  0.02621983250069715  1.0000
  S   S2        1.0  0.9769068131422545  0.7736579721183326  0.973780167980532  1.0000
  S   S3        1.0  0.623345340543196  0.3267964335308405  0.8847915704465873  1.0000
  S   S4        1.0  0.3766546599319268  0.6732035669060157  0.11520843003464183  1.0000
  S   S5        1.0  0.06192362905852737  0.32574429252603526  0.8136332437297382  1.0000
  S   S6        1.0  0.9380763714165955  0.674255707910821  0.1863667567514909  1.0000
  I   I1        1.0  0.3492973435366941  0.1294542186886298  0.28250840077406214  1.0000
  I   I2        1.0  0.6507026566142917  0.8705457814980037  0.7174915988867989  1.0000
  I   I3        1.0  0.6820276782395637  0.18225696062468535  0.1421921634395644  1.0000
  I   I4        1.0  0.3179723219646651  0.8177430385317148  0.8578078370427608  1.0000
  I   I5        1.0  0.8011556417753182  0.0275261438643608  0.43438136963506196  1.0000
  I   I6        1.0  0.19884435837566766  0.9724738563222728  0.5656186300257992  1.0000
