data_image0
_chemical_formula_structural       H56C44N16O4
_chemical_formula_sum              "H56 C44 N16 O4"
_cell_length_a       14.443992861789829
_cell_length_b       10.88394397680687
_cell_length_c       7.17058212773272
_cell_angle_alpha    90.0
_cell_angle_beta     113.07975743884431
_cell_angle_gamma    90.0

_space_group_name_H-M_alt    "P 1"
_space_group_IT_number       1

loop_
  _space_group_symop_operation_xyz
  'x, y, z'

loop_
  _atom_site_type_symbol
  _atom_site_label
  _atom_site_symmetry_multiplicity
  _atom_site_fract_x
  _atom_site_fract_y
  _atom_site_fract_z
  _atom_site_occupancy
  H   H1        1.0  0.5954305520201916  0.2762073046687958  0.2943951696253381  1.0000
  H   H2        1.0  0.4045694476637958  0.2762073046687958  0.20560483010304711  1.0000
  H   H3        1.0  0.09543055188890437  0.7762073048154857  0.2943951689149582  1.0000
  H   H4        1.0  0.9045694477950831  0.7762073048154857  0.2056048308134271  1.0000
  H   H5        1.0  0.40456944784881377  0.7237926947057994  0.7056048303874733  1.0000
  H   H6        1.0  0.5954305522052095  0.7237926947057994  0.7943951699097644  1.0000
  H   H7        1.0  0.9045694479801009  0.22379269547789413  0.7056048310978532  1.0000
  H   H8        1.0  0.09543055207392233  0.22379269547789413  0.7943951691993844  1.0000
  H   H9        1.0  0.7512057093068939  0.150215138325221  0.3708956692297219  1.0000
  H   H10       1.0  0.248794290388216  0.150215138325221  0.12910433190188086  1.0000
  H   H11       1.0  0.25120570917560675  0.6502151384719109  0.37089566851934197  1.0000
  H   H12       1.0  0.7487942905083806  0.6502151384719109  0.12910433120904333  1.0000
  H   H13       1.0  0.2487942905621114  0.8497848610493742  0.6291043307830896  1.0000
  H   H14       1.0  0.7512057094807895  0.8497848610493742  0.8708956681109307  1.0000
  H   H15       1.0  0.7487942906933985  0.34978486182146895  0.6291043314934696  1.0000
  H   H16       1.0  0.2512057093606247  0.34978486182146895  0.8708956688037682  1.0000
  H   H17       1.0  0.7451200511058375  0.8073553519500924  0.3174195279031837  1.0000
  H   H18       1.0  0.25487994857814994  0.8073553519500924  0.1825804718252017  1.0000
  H   H19       1.0  0.24512005173815515  0.30735535180340257  0.31741952916960436  1.0000
  H   H20       1.0  0.7548799486983145  0.30735535180340257  0.18258047113236422  1.0000
  H   H21       1.0  0.2548799487520454  0.19264464742450277  0.6825804707064105  1.0000
  H   H22       1.0  0.7451200512908553  0.19264464742450277  0.8174195281876099  1.0000
  H   H23       1.0  0.7548799488833327  0.6926446475711926  0.6825804714167903  1.0000
  H   H24       1.0  0.24512005117069077  0.6926446475711926  0.8174195288804472  1.0000
  H   H25       1.0  0.806163590300308  0.8958395450010881  0.5389061034057013  1.0000
  H   H26       1.0  0.19383640974259284  0.8958395450010881  0.9610938954883188  1.0000
  H   H27       1.0  0.30616359018014333  0.3958395448543982  0.5389061040985388  1.0000
  H   H28       1.0  0.69383640987388  0.3958395448543982  0.9610938961986989  1.0000
  H   H29       1.0  0.19383640955757486  0.10416045437350714  0.4610938952038928  1.0000
  H   H30       1.0  0.8061635901264125  0.10416045437350714  0.03890610452449251  1.0000
  H   H31       1.0  0.693836409688862  0.6041604545201971  0.4610938959142727  1.0000
  H   H32       1.0  0.30616359074760774  0.6041604545201971  0.03890610438769587  1.0000
  H   H33       1.0  0.8152976314531376  0.9427870128573045  0.3114944940708997  1.0000
  H   H34       1.0  0.1847023682308498  0.9427870128573045  0.1885055056574857  1.0000
  H   H35       1.0  0.3152976320743328  0.4427870127106145  0.311494493934103  1.0000
  H   H36       1.0  0.6847023683621369  0.4427870127106145  0.18850550636786562  1.0000
  H   H37       1.0  0.18470236841586773  0.0572129874360754  0.688505505941912  1.0000
  H   H38       1.0  0.8152976316381554  0.0572129874360754  0.8114944943553257  1.0000
  H   H39       1.0  0.6847023685471548  0.5572129866639807  0.6885055066522918  1.0000
  H   H40       1.0  0.31529763150686835  0.5572129866639807  0.811494493644946  1.0000
  H   H41       1.0  0.033713507973721274  0.7574616074437636  0.635617745765977  1.0000
  H   H42       1.0  0.9662864920691794  0.7574616074437636  0.8643822531280432  1.0000
  H   H43       1.0  0.5337135081050084  0.2574616082158582  0.6356177464763569  1.0000
  H   H44       1.0  0.46628649194901484  0.2574616082158582  0.8643822538208807  1.0000
  H   H45       1.0  0.9662864918841615  0.24253839193083174  0.364382252843617  1.0000
  H   H46       1.0  0.033713508552308195  0.24253839193083174  0.13561774745835156  1.0000
  H   H47       1.0  0.46628649176399684  0.7425383920775216  0.36438225353645454  1.0000
  H   H48       1.0  0.5337135079199904  0.7425383920775216  0.1356177461919307  1.0000
  H   H49       1.0  0.022554500889720244  0.8934550233556897  0.48710861249006876  1.0000
  H   H50       1.0  0.9774454995467494  0.8934550233556897  0.012891387811899847  1.0000
  H   H51       1.0  0.5225545010098849  0.3934550232089997  0.48710861179723125  1.0000
  H   H52       1.0  0.4774454994265848  0.3934550232089997  0.012891388504737302  1.0000
  H   H53       1.0  0.977445498979285  0.10654497693769018  0.5128913875227428  1.0000
  H   H54       1.0  0.02255450032225584  0.10654497693769018  0.9871086122009117  1.0000
  H   H55       1.0  0.4774454996116028  0.60654497708438  0.5128913887891636  1.0000
  H   H56       1.0  0.5225545004424205  0.60654497708438  0.9871086115080743  1.0000
  C   C1        1.0  0.4999999998419936  0.9844922045568643  0.2499999998641926  1.0000
  C   C2        1.0  0.9999999997107065  0.4844922044101743  0.2499999991538127  1.0000
  C   C3        1.0  0.5000000000270116  0.015507795736515579  0.7500000001486189  1.0000
  C   C4        1.0  0.9999999998957245  0.5155077958832055  0.7499999994382389  1.0000
  C   C5        1.0  0.4999999998419936  0.11568414470738525  0.2499999998641926  1.0000
  C   C6        1.0  0.9999999997107065  0.6156841448540751  0.2499999991538127  1.0000
  C   C7        1.0  0.5000000000270116  0.8843158555859947  0.7500000001486189  1.0000
  C   C8        1.0  0.9999999998957245  0.3843158554393047  0.7499999994382389  1.0000
  C   C9        1.0  0.5930210451182244  0.17612572373442079  0.2943912058291262  1.0000
  C   C10       1.0  0.406978954565763  0.17612572373442079  0.20560879389925915  1.0000
  C   C11       1.0  0.09302104499805972  0.6761257229623261  0.29439120652196366  1.0000
  C   C12       1.0  0.90697895469705  0.6761257229623261  0.2056087946096391  1.0000
  C   C13       1.0  0.406978954750781  0.823874276558959  0.7056087941836854  1.0000
  C   C14       1.0  0.5930210453032423  0.823874276558959  0.7943912061135523  1.0000
  C   C15       1.0  0.9069789548709456  0.3238742764122691  0.7056087934908478  1.0000
  C   C16       1.0  0.09302104517195516  0.3238742764122691  0.7943912054031725  1.0000
  C   C17       1.0  0.6782232514034713  0.10692152426361663  0.33489618924290243  1.0000
  C   C18       1.0  0.3217767490329983  0.10692152426361663  0.16510381105906613  1.0000
  C   C19       1.0  0.17822325127218425  0.6069215244103066  0.33489618853252257  1.0000
  C   C20       1.0  0.8217767491642854  0.6069215244103066  0.1651038117694461  1.0000
  C   C21       1.0  0.3217767492180163  0.8930784760297632  0.6651038113434923  1.0000
  C   C22       1.0  0.678223250836007  0.8930784760297632  0.8348961889537454  1.0000
  C   C23       1.0  0.8217767485968211  0.39307847588307326  0.665103811480289  1.0000
  C   C24       1.0  0.17822325145720222  0.39307847588307326  0.8348961888169488  1.0000
  C   C25       1.0  0.6713726099475066  0.9765934400847944  0.3270660815121772  1.0000
  C   C26       1.0  0.32862738973648076  0.9765934400847944  0.17293391821620807  1.0000
  C   C27       1.0  0.17137260981621946  0.4765934399381046  0.3270660808017973  1.0000
  C   C28       1.0  0.8286273898677677  0.4765934399381046  0.17293391892658794  1.0000
  C   C29       1.0  0.32862738992149876  0.023406560208585357  0.6729339185006343  1.0000
  C   C30       1.0  0.6713726101325247  0.023406560208585357  0.8270660817966033  1.0000
  C   C31       1.0  0.8286273900527859  0.5234065603552753  0.6729339192110142  1.0000
  C   C32       1.0  0.17137261000123744  0.5234065603552753  0.8270660810862235  1.0000
  C   C33       1.0  0.7642819438765327  0.9012312633088128  0.3736948821122278  1.0000
  C   C34       1.0  0.23571805580745475  0.9012312633088128  0.1263051176161576  1.0000
  C   C35       1.0  0.26428194449772785  0.40123126316212293  0.3736948819754311  1.0000
  C   C36       1.0  0.7357180559387418  0.40123126316212293  0.12630511832653746  1.0000
  C   C37       1.0  0.23571805599247267  0.09876873698456701  0.6263051179005839  1.0000
  C   C38       1.0  0.7642819440615506  0.09876873698456701  0.8736948823966539  1.0000
  C   C39       1.0  0.7357180561126374  0.5987687371312569  0.6263051172077463  1.0000
  C   C40       1.0  0.26428194393026344  0.5987687371312569  0.8736948816862741  1.0000
  C   C41       1.0  0.9999999998957245  0.9152776375207511  0.7499999994382389  1.0000
  C   C42       1.0  0.5000000000270116  0.41527763737406115  0.7500000001486189  1.0000
  C   C43       1.0  0.9999999997107065  0.08472236277262882  0.2499999991538127  1.0000
  C   C44       1.0  0.4999999998419936  0.5847223629193188  0.2499999998641926  1.0000
  N   N1        1.0  0.5847854161358167  0.9176192960274753  0.2843542813315411  1.0000
  N   N2        1.0  0.4152145835481706  0.9176192960274753  0.2156457183968442  1.0000
  N   N3        1.0  0.08478541600452959  0.41761929588078534  0.2843542806211612  1.0000
  N   N4        1.0  0.9152145836794577  0.41761929588078534  0.21564571910722422  1.0000
  N   N5        1.0  0.4152145837331886  0.08238070426590456  0.7156457186812705  1.0000
  N   N6        1.0  0.5847854163208347  0.08238070426590456  0.7843542816159673  1.0000
  N   N7        1.0  0.9152145838644757  0.5823807044125945  0.7156457193916503  1.0000
  N   N8        1.0  0.08478541618954755  0.5823807044125945  0.7843542809055875  1.0000
  N   N9        1.0  0.02802312295950625  0.8509266034201987  0.6196783658858693  1.0000
  N   N10       1.0  0.971976877094517  0.8509266034201987  0.8803216344113682  1.0000
  N   N11       1.0  0.5280231230907935  0.3509266032735088  0.6196783665962494  1.0000
  N   N12       1.0  0.47197687696322993  0.3509266032735088  0.8803216337009884  1.0000
  N   N13       1.0  0.9719768769094991  0.14907339687318114  0.38032163412694214  1.0000
  N   N14       1.0  0.028023122774488277  0.14907339687318114  0.11967836560144324  1.0000
  N   N15       1.0  0.47197687677821193  0.6490733970198711  0.38032163341656217  1.0000
  N   N16       1.0  0.5280231229057755  0.6490733970198711  0.11967836631182316  1.0000
  O   O1        1.0  0.9999999998957245  0.032639382447852486  0.7499999994382389  1.0000
  O   O2        1.0  0.5000000000270116  0.5326393816757578  0.7500000001486189  1.0000
  O   O3        1.0  0.9999999997107065  0.9673606178455273  0.2499999991538127  1.0000
  O   O4        1.0  0.4999999998419936  0.46736061769883747  0.2499999998641926  1.0000
