data_image0
_chemical_formula_structural       H112B20C28N16P4
_chemical_formula_sum              "H112 B20 C28 N16 P4"
_cell_length_a       6.903316857467514
_cell_length_b       18.401403729211115
_cell_length_c       12.361941941401334
_cell_angle_alpha    90.0
_cell_angle_beta     107.20900904221789
_cell_angle_gamma    90.0

_space_group_name_H-M_alt    "P 1"
_space_group_IT_number       1

loop_
  _space_group_symop_operation_xyz
  'x, y, z'

loop_
  _atom_site_type_symbol
  _atom_site_label
  _atom_site_symmetry_multiplicity
  _atom_site_fract_x
  _atom_site_fract_y
  _atom_site_fract_z
  _atom_site_occupancy
  H   H1        1.0  0.490061269263518  0.4669859221858613  0.42576803830243015  1.0000
  H   H2        1.0  0.5099387304142169  0.9669859219355783  0.07423196189477484  1.0000
  H   H3        1.0  0.509938730084769  0.5330140778570096  0.5742319621756191  1.0000
  H   H4        1.0  0.4900612699621579  0.03301407810729254  0.9257680377491452  1.0000
  H   H5        1.0  0.1917874479613058  0.4754720264145355  0.2156423858060707  1.0000
  H   H6        1.0  0.808212551716429  0.9754720261642525  0.28435761439113433  1.0000
  H   H7        1.0  0.8082125524150691  0.5245279736283354  0.7843576138378493  1.0000
  H   H8        1.0  0.19178744763185793  0.02452797387861832  0.7156423860869151  1.0000
  H   H9        1.0  0.7021678477279222  0.3302231959811746  0.5829771449799735  1.0000
  H   H10       1.0  0.2978321523190047  0.8302231962743285  0.917022854944791  1.0000
  H   H11       1.0  0.29783215307547045  0.6697768040616963  0.4170228555106986  1.0000
  H   H12       1.0  0.7021678466022645  0.1697768037685424  0.0829771446865064  1.0000
  H   H13       1.0  0.6819290359558018  0.3349213875578727  0.722815576482529  1.0000
  H   H14       1.0  0.3180709640911251  0.8349213873075897  0.7771844234422354  1.0000
  H   H15       1.0  0.3180709633924852  0.6650786124849982  0.27718442399552035  1.0000
  H   H16       1.0  0.6819290362852497  0.16507861273528115  0.22281557620168468  1.0000
  H   H17       1.0  0.7072588908011883  0.4166060183675267  0.6493766813378153  1.0000
  H   H18       1.0  0.2927411092457385  0.9166060181172438  0.8506233185869491  1.0000
  H   H19       1.0  0.29274110812008075  0.5833939816753442  0.35062331829348187  1.0000
  H   H20       1.0  0.7072588915576543  0.08339398192562716  0.14937668190372308  1.0000
  H   H21       1.0  0.357358273438578  0.37559586821240304  0.7508625430914407  1.0000
  H   H22       1.0  0.6426417266083488  0.8755958679621201  0.7491374568333236  1.0000
  H   H23       1.0  0.6426417273648146  0.6244041318304678  0.2491374573992313  1.0000
  H   H24       1.0  0.35735827376802604  0.12440413208075081  0.25086254281059656  1.0000
  H   H25       1.0  0.15750796082684201  0.40398006040154927  0.6315214976275109  1.0000
  H   H26       1.0  0.8424920392200849  0.903980060694703  0.8684785022972534  1.0000
  H   H27       1.0  0.8424920395495328  0.5960199396413217  0.36847850201640914  1.0000
  H   H28       1.0  0.1575079597011844  0.0960199393481678  0.13152149733404386  1.0000
  H   H29       1.0  0.37678290375885404  0.45996389593713116  0.6846477687578443  1.0000
  H   H30       1.0  0.6232170948329672  0.9599638956868483  0.8153522311542973  1.0000
  H   H31       1.0  0.6232170951624151  0.5400361041057397  0.315352230873453  1.0000
  H   H32       1.0  0.37678290451531987  0.04003610435602262  0.184647769323752  1.0000
  H   H33       1.0  0.3503270588193918  0.18725200157041064  0.4171799867544019  1.0000
  H   H34       1.0  0.6496729418864311  0.6872520013201276  0.0828200126086739  1.0000
  H   H35       1.0  0.6496729415569831  0.8127479984724603  0.5828200128895182  1.0000
  H   H36       1.0  0.35032705848994383  0.3127479987227432  0.9171799870352462  1.0000
  H   H37       1.0  0.41772981562576433  0.23484508918957706  0.5489171710197049  1.0000
  H   H38       1.0  0.5822701844211626  0.7348450894827309  0.9510828289050595  1.0000
  H   H39       1.0  0.5822701851776285  0.7651549108532939  0.4510828294709673  1.0000
  H   H40       1.0  0.4177298159552123  0.26515491056014  0.04891717073886062  1.0000
  H   H41       1.0  0.6072441906891305  0.21345166204710997  0.4821699708284545  1.0000
  H   H42       1.0  0.39275580898860435  0.7134516623402638  0.017830029368750524  1.0000
  H   H43       1.0  0.39275580823213857  0.7865483374523241  0.5178300288028428  1.0000
  H   H44       1.0  0.6072441918147883  0.28654833770260707  0.9821699711219216  1.0000
  H   H45       1.0  0.4536289778627375  0.24942217819579166  0.261557818303016  1.0000
  H   H46       1.0  0.5463710218149975  0.7494221779455087  0.23844218189418898  1.0000
  H   H47       1.0  0.5463710214855495  0.7505778218470792  0.7384421821750333  1.0000
  H   H48       1.0  0.4536289789883952  0.25057782209736223  0.7615578185964832  1.0000
  H   H49       1.0  0.41122142708599785  0.3517420657275848  0.25483014532534815  1.0000
  H   H50       1.0  0.5887785740468428  0.8517420660207387  0.2451698548844797  1.0000
  H   H51       1.0  0.588778573290377  0.6482579343152861  0.745169854318572  1.0000
  H   H52       1.0  0.41122142675654993  0.14825793402213225  0.7548301456061924  1.0000
  H   H53       1.0  0.09640422209049446  0.23606256696082098  0.23453151000275765  1.0000
  H   H54       1.0  0.9035957775872405  0.736062566710538  0.26546849019444735  1.0000
  H   H55       1.0  0.9035957782858804  0.7639374330820499  0.7654684896411624  1.0000
  H   H56       1.0  0.0964042217610466  0.2639374333323328  0.7345315102836021  1.0000
  H   H57       1.0  0.9942972952232547  0.47041743594042135  0.3799544711182843  1.0000
  H   H58       1.0  0.005702704027462383  0.9704174356901383  0.12004552823216869  1.0000
  H   H59       1.0  0.0057027036980143875  0.5295825641024495  0.620045528513013  1.0000
  H   H60       1.0  0.9942972948938068  0.02958256435273252  0.8799544713991285  1.0000
  H   H61       1.0  0.7856022528973775  0.40829338351363353  0.3397558122680344  1.0000
  H   H62       1.0  0.21439774780844542  0.9082933832633505  0.1602441870950414  1.0000
  H   H63       1.0  0.21439774747899742  0.5917066165292374  0.6602441873758856  1.0000
  H   H64       1.0  0.7856022525679293  0.09170661677952033  0.8397558125488785  1.0000
  H   H65       1.0  0.8817683337720615  0.43719527859872115  0.4833966874786645  1.0000
  H   H66       1.0  0.11823166736077914  0.937195278891875  0.016603312731163344  1.0000
  H   H67       1.0  0.11823166660431335  0.5628047214441497  0.5166033121652556  1.0000
  H   H68       1.0  0.8817683334426135  0.06280472115099589  0.9833966877595088  1.0000
  H   H69       1.0  0.9837801632639409  0.29313402386999576  0.5439048523692384  1.0000
  H   H70       1.0  0.01621983721000388  0.7931340236197129  0.956095148402278  1.0000
  H   H71       1.0  0.016219837539451738  0.7068659761728752  0.4560951481214337  1.0000
  H   H72       1.0  0.9837801635933888  0.2068659764231581  0.043904852088394085  1.0000
  H   H73       1.0  0.7878475149543137  0.3289146430928004  0.1752210595752611  1.0000
  H   H74       1.0  0.2121524861785269  0.8289146428425174  0.3247789406345667  1.0000
  H   H75       1.0  0.21215248542206103  0.6710853569500704  0.8247789400686588  1.0000
  H   H76       1.0  0.7878475146248658  0.17108535720035348  0.6752210598561055  1.0000
  H   H77       1.0  0.8306940778392865  0.2869964573200746  0.39929052987031416  1.0000
  H   H78       1.0  0.16930592183844848  0.7869964570697916  0.10070947032689087  1.0000
  H   H79       1.0  0.16930592108198267  0.7130035427227962  0.600709469760983  1.0000
  H   H80       1.0  0.8306940789649442  0.21300354297307922  0.8992905301637812  1.0000
  H   H81       1.0  0.07599744295179502  0.24776970100179752  0.4419352295719211  1.0000
  H   H82       1.0  0.92400255672594  0.7477697007515146  0.05806477062528393  1.0000
  H   H83       1.0  0.9240025574245798  0.7522302990410734  0.558064770071999  1.0000
  H   H84       1.0  0.07599744262234709  0.2522302992913563  0.9419352298527653  1.0000
  H   H85       1.0  0.7191750684946296  0.3198730149404935  0.2107223651196855  1.0000
  H   H86       1.0  0.28082493118310525  0.8198730146902105  0.2892776350775196  1.0000
  H   H87       1.0  0.2808249304266394  0.6801269851023773  0.7892776345116118  1.0000
  H   H88       1.0  0.7191750696202874  0.18012698535266036  0.7107223654131526  1.0000
  H   H89       1.0  0.01572717592943554  0.28994260266842864  0.7406275953805108  1.0000
  H   H90       1.0  0.9842728241174913  0.7899426024181457  0.7593724045442535  1.0000
  H   H91       1.0  0.9842728244469393  0.7100573973744422  0.25937240426340924  1.0000
  H   H92       1.0  0.01572717668590134  0.2100573976247252  0.2406275959464186  1.0000
  H   H93       1.0  0.7640456883577307  0.46992026952123794  0.15093902864671094  1.0000
  H   H94       1.0  0.23595431132000436  0.9699202698143917  0.34906097155049404  1.0000
  H   H95       1.0  0.23595431056353866  0.5300797305216329  0.8490609709845864  1.0000
  H   H96       1.0  0.7640456894833882  0.03007973022847912  0.6509390289401781  1.0000
  H   H97       1.0  0.9821327910366939  0.6092454877343547  0.16196145604436257  1.0000
  H   H98       1.0  0.017867210096146766  0.10924548798463768  0.3380385441654653  1.0000
  H   H99       1.0  0.017867209766698682  0.39075451230851616  0.8380385444463094  1.0000
  H   H100      1.0  0.982132790280228  0.8907545120582333  0.6619614554784549  1.0000
  H   H101      1.0  0.36311742138404485  0.5807484644791359  0.10338119771268212  1.0000
  H   H102      1.0  0.6368825778666724  0.08074846472941884  0.39661880163777086  1.0000
  H   H103      1.0  0.6368825775372243  0.4192515350202982  0.8966188019186152  1.0000
  H   H104      1.0  0.3631174225097025  0.9192515353134522  0.6033811980061492  1.0000
  H   H105      1.0  0.37960118630431905  0.4237372188960869  0.05713708432904437  1.0000
  H   H106      1.0  0.620398813373416  0.9237372191892407  0.4428629158681607  1.0000
  H   H107      1.0  0.6203988144990737  0.576262781146784  0.9428629161616278  1.0000
  H   H108      1.0  0.3796011855478532  0.07626278085363015  0.5571370837631366  1.0000
  H   H109      1.0  0.011928643276180267  0.35466016593288374  0.08574142782022842  1.0000
  H   H110      1.0  0.9880713564015546  0.8546601662260376  0.41425857237697655  1.0000
  H   H111      1.0  0.9880713556450889  0.6453398341099872  0.9142585718110688  1.0000
  H   H112      1.0  0.011928644401837966  0.1453398338168333  0.5857414281136955  1.0000
  B   B1        1.0  0.8537937253742136  0.48244233813028736  0.08464507389559259  1.0000
  B   B2        1.0  0.1462062743035212  0.9824423384234413  0.4153549263016124  1.0000
  B   B3        1.0  0.1462062750021611  0.5175576619125836  0.9153549257483276  1.0000
  B   B4        1.0  0.8537937250447659  0.01755766161942967  0.584645074176437  1.0000
  B   B5        1.0  0.9848632867536489  0.5658622072114278  0.09125568874253333  1.0000
  B   B6        1.0  0.015136712924086124  0.06586220691827394  0.4087443114546717  1.0000
  B   B7        1.0  0.015136714049743859  0.4341377928314431  0.9087443117481389  1.0000
  B   B8        1.0  0.984863286424201  0.9341377925811603  0.5912556890233777  1.0000
  B   B9        1.0  0.21191975028284948  0.549023467919592  0.0563221590025139  1.0000
  B   B10       1.0  0.7880802493948855  0.04902346816987498  0.4436778411946911  1.0000
  B   B11       1.0  0.7880802505205433  0.4509765321232789  0.9436778414881583  1.0000
  B   B12       1.0  0.2119197499534015  0.9509765318729958  0.5563221592833582  1.0000
  B   B13       1.0  0.22182043902169038  0.4549015419248597  0.028397211630563177  1.0000
  B   B14       1.0  0.7781795621111502  0.9549015416745766  0.4716027885792647  1.0000
  B   B15       1.0  0.7781795613546846  0.5450984581180112  0.971602788013357  1.0000
  B   B16       1.0  0.22182043869224244  0.04509845836829414  0.5283972119114075  1.0000
  B   B17       1.0  0.0007845009714979829  0.41384189337203753  0.04571014539625502  1.0000
  B   B18       1.0  0.999215498706237  0.9138418936651913  0.45428985480094997  1.0000
  B   B19       1.0  0.9992154994048769  0.5861581066708333  0.9542898542476651  1.0000
  B   B20       1.0  0.000784500642049999  0.08615810637767952  0.5457101456770993  1.0000
  C   C1        1.0  0.1120451226121134  0.48608576289214783  0.12595194479090285  1.0000
  C   C2        1.0  0.8879548780937093  0.9860857626418649  0.3740480545721729  1.0000
  C   C3        1.0  0.8879548777642615  0.513914237150723  0.8740480548530173  1.0000
  C   C4        1.0  0.11204512228266542  0.013914236857569165  0.6259519450717471  1.0000
  C   C5        1.0  0.6390126277339961  0.36184226909983963  0.6395630452015052  1.0000
  C   C6        1.0  0.3609873727399485  0.8618422693929934  0.8604369555700112  1.0000
  C   C7        1.0  0.36098737161429084  0.6381577309430313  0.3604369552765442  1.0000
  C   C8        1.0  0.6390126280634442  0.13815773064987746  0.13956304492066088  1.0000
  C   C9        1.0  0.3225756609688814  0.4034021441644788  0.6685520447673685  1.0000
  C   C10       1.0  0.6774243390780456  0.9034021439141958  0.8314479551573959  1.0000
  C   C11       1.0  0.6774243398345113  0.5965978558783921  0.3314479557233036  1.0000
  C   C12       1.0  0.3225756612983293  0.09659785612867505  0.16855204448652422  1.0000
  C   C13       1.0  0.44817946739308573  0.22993053368442062  0.46743334951527327  1.0000
  C   C14       1.0  0.5518205322846492  0.7299305339775745  0.03256665068193181  1.0000
  C   C15       1.0  0.551820533410307  0.7700694658150135  0.5325666509753989  1.0000
  C   C16       1.0  0.4481794666366199  0.2700694660652964  0.9674333489493655  1.0000
  C   C17       1.0  0.43722325800076894  0.30085659450054036  0.301120236379708  1.0000
  C   C18       1.0  0.562776741676966  0.8008565942502573  0.198879763817497  1.0000
  C   C19       1.0  0.562776741347518  0.6991434055423305  0.6988797640983413  1.0000
  C   C20       1.0  0.4372232591264267  0.1991434057926135  0.801120236673175  1.0000
  C   C21       1.0  0.9244978270252319  0.4230838888470909  0.4066442612386986  1.0000
  C   C22       1.0  0.07550217222548525  0.9230838891402448  0.09335573811175438  1.0000
  C   C23       1.0  0.07550217335114297  0.57691611119578  0.5933557384052215  1.0000
  C   C24       1.0  0.924497826695784  0.07691611090262612  0.9066442615195429  1.0000
  C   C25       1.0  0.9867857539285387  0.29414083564765325  0.45523771510107275  1.0000
  C   C26       1.0  0.013214245749196296  0.7941408359408071  0.04476228509613229  1.0000
  C   C27       1.0  0.013214244992730509  0.7058591643952176  0.5447622845302246  1.0000
  C   C28       1.0  0.9867857550541964  0.2058591641020638  0.9552377153945398  1.0000
  N   N1        1.0  0.34629877827115296  0.4470462227260022  0.392978938856763  1.0000
  N   N2        1.0  0.6537012214065822  0.947046223019156  0.107021061340442  1.0000
  N   N3        1.0  0.6537012221052219  0.5529537773168687  0.6070210607871571  1.0000
  N   N4        1.0  0.34629877794170505  0.05295377702371483  0.8929789391376073  1.0000
  N   N5        1.0  0.4176830398324789  0.36437524270804367  0.5946217491698675  1.0000
  N   N6        1.0  0.582316960214448  0.8643752424577608  0.9053782507548969  1.0000
  N   N7        1.0  0.5823169609709137  0.6356247573348273  0.4053782513208046  1.0000
  N   N8        1.0  0.4176830387068212  0.1356247575851102  0.09462174887640042  1.0000
  N   N9        1.0  0.40998527129279955  0.29920605085468877  0.4071832456942017  1.0000
  N   N10       1.0  0.5900147283849354  0.7992060511478426  0.09281675450300328  1.0000
  N   N11       1.0  0.5900147290835753  0.700793949188182  0.5928167539497183  1.0000
  N   N12       1.0  0.40998527096335163  0.2007939488950283  0.9071832459750461  1.0000
  N   N13       1.0  0.06650272253306848  0.36234788433098797  0.42599715398050847  1.0000
  N   N14       1.0  0.9334972767176487  0.862347884080705  0.07400284536994457  1.0000
  N   N15       1.0  0.9334972763882008  0.6376521157118828  0.5740028456507889  1.0000
  N   N16       1.0  0.06650272365872621  0.13765211596216587  0.9259971542739756  1.0000
  P   P1        1.0  0.31384402690350166  0.37520517301839523  0.45418849074050993  1.0000
  P   P2        1.0  0.6861559742293388  0.8752051733115491  0.045811509469317856  1.0000
  P   P3        1.0  0.686155973899891  0.6247948270244756  0.5458115097501622  1.0000
  P   P4        1.0  0.3138440261470358  0.12479482673132179  0.9541884901746022  1.0000
