data_image0
_chemical_formula_structural       H122C90N14O2F16S6I8
_chemical_formula_sum              "H122 C90 N14 O2 F16 S6 I8"
_cell_length_a       14.069664454598481
_cell_length_b       14.418520659128818
_cell_length_c       15.447650079692426
_cell_angle_alpha    115.0039507338209
_cell_angle_beta     94.32595068255358
_cell_angle_gamma    102.02276817189029

_space_group_name_H-M_alt    "P 1"
_space_group_IT_number       1

loop_
  _space_group_symop_operation_xyz
  'x, y, z'

loop_
  _atom_site_type_symbol
  _atom_site_label
  _atom_site_symmetry_multiplicity
  _atom_site_fract_x
  _atom_site_fract_y
  _atom_site_fract_z
  _atom_site_occupancy
  H   H1        1.0  0.18965789400349725  0.4296923207071375  0.4461114467958741  1.0000
  H   H2        1.0  0.8103421056520953  0.570307679396018  0.5538885530099364  1.0000
  H   H3        1.0  0.95172680844056  0.4362070731285408  0.3634350378413262  1.0000
  H   H4        1.0  0.048273191069442764  0.5637929262671986  0.6365649619678745  1.0000
  H   H5        1.0  0.565536782672531  0.23322346650798906  0.34305758617301957  1.0000
  H   H6        1.0  0.43446321754955414  0.7667765328935576  0.6569424136375552  1.0000
  H   H7        1.0  0.8197173392747196  0.2761033905933562  0.3178146481853789  1.0000
  H   H8        1.0  0.18028266023528317  0.7238966088023832  0.6821853516238218  1.0000
  H   H9        1.0  0.38735570302438743  0.4795401265836771  0.7237743150906087  1.0000
  H   H10       1.0  0.6126442973432876  0.5204598735252856  0.27622568471657594  1.0000
  H   H11       1.0  0.48991554228560286  0.572133313022359  0.9719754610981572  1.0000
  H   H12       1.0  0.5100844580721762  0.4278666867393103  0.028024539439166996  1.0000
  H   H13       1.0  0.17242891803023921  0.21881154412641682  0.29381847750595386  1.0000
  H   H14       1.0  0.8275710816253532  0.7811884559767387  0.7061815222998566  1.0000
  H   H15       1.0  0.13068322050924255  0.21313436911476663  0.3955650650283015  1.0000
  H   H16       1.0  0.8693167798584325  0.7868656309941959  0.604434934778883  1.0000
  H   H17       1.0  0.1487170033720049  0.5377764522916586  0.37057242096932796  1.0000
  H   H18       1.0  0.8512829962835874  0.4622235478114967  0.6294275788364824  1.0000
  H   H19       1.0  0.13427222813505266  0.5752883870787049  0.4934727484637269  1.0000
  H   H20       1.0  0.8657277722326224  0.4247116130302577  0.5065272513434577  1.0000
  H   H21       1.0  0.9936556453370138  0.5952315996615075  0.3441572172377071  1.0000
  H   H22       1.0  0.006344354172988913  0.404768399734232  0.6558427825714936  1.0000
  H   H23       1.0  0.9918030070751375  0.6421332880329131  0.4698441618842379  1.0000
  H   H24       1.0  0.008196992580455028  0.35786671207024223  0.5301558379215725  1.0000
  H   H25       1.0  0.15580575525716267  0.7198299330021027  0.37777009971999626  1.0000
  H   H26       1.0  0.8441942451105123  0.28017006710685993  0.6222299000871884  1.0000
  H   H27       1.0  0.16674520895697492  0.759680058819836  0.5037928205138299  1.0000
  H   H28       1.0  0.8332547908343113  0.24031994164344192  0.49620718001873  1.0000
  H   H29       1.0  0.11352135073984365  0.8937023321317106  0.46028801903005856  1.0000
  H   H30       1.0  0.8864786489157489  0.10629766797144483  0.539711980775752  1.0000
  H   H31       1.0  0.007069149972988403  0.7939275089877222  0.3810894058896053  1.0000
  H   H32       1.0  0.9929308505303804  0.20607249148136286  0.6189105946443286  1.0000
  H   H33       1.0  0.022025118218382107  0.8363198281643377  0.5089106903830011  1.0000
  H   H34       1.0  0.9779748814372103  0.16368017193881765  0.4910893094228094  1.0000
  H   H35       1.0  0.5191454370235077  0.39978060828257644  0.3219281691887381  1.0000
  H   H36       1.0  0.48085456263208487  0.6002193918205789  0.6780718306170723  1.0000
  H   H37       1.0  0.5974675256741095  0.46348307020538176  0.43531598567915325  1.0000
  H   H38       1.0  0.4025324745479757  0.536516929196165  0.5646840141314217  1.0000
  H   H39       1.0  0.7754982394913147  0.12884326306860086  0.3402299114188506  1.0000
  H   H40       1.0  0.22450176001868816  0.8711567363271386  0.6597700883903501  1.0000
  H   H41       1.0  0.6558963275887603  0.14448319094683895  0.35879950798923754  1.0000
  H   H42       1.0  0.34410367205693626  0.855516808809023  0.6412004925467125  1.0000
  H   H43       1.0  0.6071139604952207  0.08874745389345427  0.1797320113579428  1.0000
  H   H44       1.0  0.39288603972686464  0.9112525455080925  0.8202679884526322  1.0000
  H   H45       1.0  0.6418059786866691  0.9906212268215324  0.20504522204886336  1.0000
  H   H46       1.0  0.358194021681006  0.00937877328743013  0.7949547777583212  1.0000
  H   H47       1.0  0.7757046408105366  0.13911343265167045  0.1420584679523445  1.0000
  H   H48       1.0  0.22429535884505591  0.860886567451485  0.857941531853466  1.0000
  H   H49       1.0  0.8127457456372088  0.04672524718401071  0.17384652556635785  1.0000
  H   H50       1.0  0.18725425458487646  0.953274752217536  0.826153474244217  1.0000
  H   H51       1.0  0.7639373809805079  0.9728074019714876  0.9928173457568819  1.0000
  H   H52       1.0  0.23606261924157732  0.02719259743005901  0.007182654053693019  1.0000
  H   H53       1.0  0.6853720844233407  0.8970645505508792  0.03821423447829766  1.0000
  H   H54       1.0  0.31462791608002805  0.10293544991820608  0.9617857660556364  1.0000
  H   H55       1.0  0.6432746603979909  0.9879720925419798  0.006938380519649629  1.0000
  H   H56       1.0  0.3567253399597882  0.012027907219689488  0.9930616200176746  1.0000
  H   H57       1.0  0.36832047831778214  0.26912123047880043  0.6661896093117988  1.0000
  H   H58       1.0  0.6316795213378104  0.7308787696243548  0.3338103904940116  1.0000
  H   H59       1.0  0.4953095223520241  0.3154354638733792  0.6729411345712871  1.0000
  H   H60       1.0  0.5046904774392621  0.6845645365898987  0.3270588659612727  1.0000
  H   H61       1.0  0.3652539901530861  0.612133644444154  0.840554002392854  1.0000
  H   H62       1.0  0.6347460095025064  0.38786635565900135  0.15944599741295643  1.0000
  H   H63       1.0  0.4918022311295284  0.6763761982934657  0.8529634167339957  1.0000
  H   H64       1.0  0.5081977685260641  0.32362380180968975  0.14703658307181489  1.0000
  H   H65       1.0  0.377105782545034  0.6940177966582468  0.01787087352836285  1.0000
  H   H66       1.0  0.622894217822641  0.30598220345071586  0.9821291262788218  1.0000
  H   H67       1.0  0.5059524283579505  0.7508050593491981  0.03594050801764336  1.0000
  H   H68       1.0  0.49404757200972454  0.24919494075976456  0.9640594917895412  1.0000
  H   H69       1.0  0.34511085067009944  0.810109774952506  0.9408470879817911  1.0000
  H   H70       1.0  0.6548891496876796  0.18989022480916323  0.05915291255553323  1.0000
  H   H71       1.0  0.47424821855823196  0.8664573480349298  0.9614611138304063  1.0000
  H   H72       1.0  0.5257517810973605  0.1335426520682255  0.038538885975404155  1.0000
  H   H73       1.0  0.4078724085036335  0.9845336106538118  0.10077989086899969  1.0000
  H   H74       1.0  0.5921275912876528  0.015466389809466007  0.8992201096635601  1.0000
  H   H75       1.0  0.3477752672629943  0.8743591408823689  0.11778136111781835  1.0000
  H   H76       1.0  0.6522247323925983  0.12564085922078658  0.8822186386879921  1.0000
  H   H77       1.0  0.4789699302408021  0.9193706018816417  0.14311476929624176  1.0000
  H   H78       1.0  0.5210300694147904  0.0806293982215136  0.8568852305095687  1.0000
  H   H79       1.0  0.39050511216657297  0.38056208628865634  0.27190146004648685  1.0000
  H   H80       1.0  0.6094948874890196  0.6194379138144991  0.7280985397593237  1.0000
  H   H81       1.0  0.2662110083112921  0.32619315481647854  0.2656019661618111  1.0000
  H   H82       1.0  0.733788991479994  0.6738068456467994  0.7343980343707487  1.0000
  H   H83       1.0  0.33144050577081086  0.20513170647086323  0.12780976106681144  1.0000
  H   H84       1.0  0.6685594938847816  0.7948682936322923  0.8721902387389991  1.0000
  H   H85       1.0  0.4199477736454018  0.1963174016875816  0.21099683122215043  1.0000
  H   H86       1.0  0.5800522260101907  0.8036825984155737  0.78900316858366  1.0000
  H   H87       1.0  0.29192797364153344  0.1427391141048828  0.20070890835309274  1.0000
  H   H88       1.0  0.7080720260041631  0.8572608856509792  0.7992910921828574  1.0000
  H   H89       1.0  0.5881942384407673  0.445621269990858  0.653305939430221  1.0000
  H   H90       1.0  0.41180576121482515  0.5543787301122974  0.3466940603755896  1.0000
  H   H91       1.0  0.6350915350552633  0.44564153313814164  0.5517176436494948  1.0000
  H   H92       1.0  0.3649084646003291  0.5543584669650137  0.4482823561563156  1.0000
  H   H93       1.0  0.7052825140692153  0.3380311734077538  0.6187684833544193  1.0000
  H   H94       1.0  0.29471748629845984  0.6619688267012088  0.3812315164527653  1.0000
  H   H95       1.0  0.5865882561879291  0.24937766644910006  0.5901038250549461  1.0000
  H   H96       1.0  0.4134117441797459  0.7506223336598625  0.4098961747522385  1.0000
  H   H97       1.0  0.644390632917998  0.25887833578456465  0.4958029250130714  1.0000
  H   H98       1.0  0.35560936687328815  0.7411216646787132  0.5041970755194883  1.0000
  H   H99       1.0  0.1561685390300447  0.29147213763292934  0.5429106972212124  1.0000
  H   H100      1.0  0.843831460479958  0.7085278617628102  0.4570893025879883  1.0000
  H   H101      1.0  0.24110441015784304  0.31301600432711507  0.6417912048760553  1.0000
  H   H102      1.0  0.7588955900642422  0.6869839950744316  0.35820879493451957  1.0000
  H   H103      1.0  0.130789828611735  0.12866943882805223  0.5676979133489847  1.0000
  H   H104      1.0  0.8692101710438576  0.8713305612751031  0.4323020864568258  1.0000
  H   H105      1.0  0.1681964926964867  0.10186456135971068  0.4545039678153769  1.0000
  H   H106      1.0  0.8318035069591058  0.8981354387434447  0.5454960319904336  1.0000
  H   H107      1.0  0.2542850664862189  0.12400946938875113  0.5559161046998479  1.0000
  H   H108      1.0  0.7457149331594777  0.8759905303671109  0.44408389583610225  1.0000
  H   H109      1.0  0.34182897877931934  0.08773057096785754  0.3423526286278658  1.0000
  H   H110      1.0  0.6581710217240495  0.9122694295012276  0.6576473719060683  1.0000
  H   H111      1.0  0.5382406580627586  0.9600915466305017  0.3265221605584899  1.0000
  H   H112      1.0  0.4617593414472441  0.03990845276523778  0.6734778392507108  1.0000
  H   H113      1.0  0.4516717127933004  0.8323146483897528  0.2798255672404648  1.0000
  H   H114      1.0  0.5483282875743747  0.1676853517192097  0.7201744325667196  1.0000
  H   H115      1.0  0.4917131788981682  0.9108578786040537  0.4080949285362405  1.0000
  H   H116      1.0  0.5082868207574244  0.08914212149910188  0.5919050712695699  1.0000
  H   H117      1.0  0.2419528950762389  0.9514366420962985  0.3422166388319549  1.0000
  H   H118      1.0  0.7580471051458464  0.048563357305248196  0.6577833609786201  1.0000
  H   H119      1.0  0.29449666010355463  0.8862764446209882  0.4014952936886196  1.0000
  H   H120      1.0  0.7055033403998142  0.11372355584809701  0.5985047068453143  1.0000
  H   H121      1.0  0.270637838613184  0.8294702825733993  0.2718162682534607  1.0000
  H   H122      1.0  0.7293621610424085  0.1705297175297563  0.7281837315523497  1.0000
  C   C1        1.0  0.2854503483148892  0.2962656566080321  0.42366300045236094  1.0000
  C   C2        1.0  0.7145496513407034  0.7037343434951232  0.5763369993534495  1.0000
  C   C3        1.0  0.36334445051300873  0.3245670249081453  0.37971164527286466  1.0000
  C   C4        1.0  0.6366555499903601  0.6754329755609398  0.6202883552610694  1.0000
  C   C5        1.0  0.4618962022758011  0.3557907478746862  0.42867665485131823  1.0000
  C   C6        1.0  0.5381037972342017  0.6442092515210533  0.5713233449578825  1.0000
  C   C7        1.0  0.4823412305173379  0.35876287489979997  0.5207641144148124  1.0000
  C   C8        1.0  0.5176587689926649  0.6412371244959395  0.4792358853943882  1.0000
  C   C9        1.0  0.40334400618009764  0.3291302168690478  0.5627343186195258  1.0000
  C   C10       1.0  0.5966559934754948  0.6708697832341076  0.4372656811862846  1.0000
  C   C11       1.0  0.3046742962725983  0.2991581675521442  0.5155928828091508  1.0000
  C   C12       1.0  0.6953257033829943  0.7008418325510112  0.48440711699665967  1.0000
  C   C13       1.0  0.17998166935771237  0.2647214461934381  0.37279417711450963  1.0000
  C   C14       1.0  0.8200183302978802  0.7352785539097171  0.6272058226913008  1.0000
  C   C15       1.0  0.049645985180572685  0.35312034212713816  0.3663259916787604  1.0000
  C   C16       1.0  0.9503540151871024  0.6468796579818246  0.6336740081284243  1.0000
  C   C17       1.0  0.09396417934307415  0.5472667384710362  0.4191088948945378  1.0000
  C   C18       1.0  0.9060358211602948  0.452733261998049  0.5808911056393963  1.0000
  C   C19       1.0  0.04089624379677021  0.6280460803186388  0.4160444635268196  1.0000
  C   C20       1.0  0.9591037564253151  0.37195391908290787  0.5839555362837553  1.0000
  C   C21       1.0  0.11318037310531627  0.7331313537683608  0.4368731968096763  1.0000
  C   C22       1.0  0.8868196265502761  0.2668686463347946  0.5631268029961343  1.0000
  C   C23       1.0  0.061114056467125526  0.8190254419584209  0.4472341734914404  1.0000
  C   C24       1.0  0.938885943188467  0.1809745581447345  0.5527658263143701  1.0000
  C   C25       1.0  0.5463729741365213  0.38722951431318736  0.3834291297491717  1.0000
  C   C26       1.0  0.45362702551907114  0.6127704857899681  0.6165708700566387  1.0000
  C   C27       1.0  0.6971909890296724  0.3300437975122138  0.3430848138479769  1.0000
  C   C28       1.0  0.30280901062592014  0.6699562025909417  0.6569151859578336  1.0000
  C   C29       1.0  0.7115174482724301  0.14863475122743738  0.3135727722460125  1.0000
  C   C30       1.0  0.2884825522309386  0.8513652492416478  0.6864272282879215  1.0000
  C   C31       1.0  0.6706361488460665  0.06898033008436413  0.20745447239027157  1.0000
  C   C32       1.0  0.32936385079963  0.931019669671498  0.7925455281456786  1.0000
  C   C33       1.0  0.7481410144415235  0.062093695960104243  0.1426233964269326  1.0000
  C   C34       1.0  0.2518589859162555  0.937906303801565  0.8573766041103916  1.0000
  C   C35       1.0  0.7084244961547363  0.9753097532937635  0.03939964198780833  1.0000
  C   C36       1.0  0.2915755035008563  0.024690246809392073  0.9606003578180022  1.0000
  C   C37       1.0  0.4241006696112752  0.33128909491070874  0.6605898961067563  1.0000
  C   C38       1.0  0.5758993298987276  0.6687109044850308  0.33941010370244445  1.0000
  C   C39       1.0  0.4659939874956958  0.46294118985195554  0.8320879608405616  1.0000
  C   C40       1.0  0.534006012014307  0.5370588095437839  0.16791203896863918  1.0000
  C   C41       1.0  0.43843395916903205  0.6433986168141739  0.888206433877364  1.0000
  C   C42       1.0  0.5615660411986431  0.3566013832947887  0.1117935659298207  1.0000
  C   C43       1.0  0.4347624465798369  0.7287774746734762  0.9875553851244437  1.0000
  C   C44       1.0  0.5652375530757555  0.2712225254296791  0.012444614681366628  1.0000
  C   C45       1.0  0.4154179543682032  0.8296027376036661  0.9892937971326609  1.0000
  C   C46       1.0  0.5845820452873893  0.1703972624994893  0.01070620267314957  1.0000
  C   C47       1.0  0.41225809173380257  0.9064961787409297  0.09323839728131005  1.0000
  C   C48       1.0  0.5877419079217899  0.09350382136222579  0.9067616025245004  1.0000
  C   C49       1.0  0.3401064133292225  0.31583362658231523  0.27876994060294863  1.0000
  C   C50       1.0  0.6598935861807802  0.6841663728134243  0.7212300592062522  1.0000
  C   C51       1.0  0.346536449867338  0.2090998238071659  0.2000372234776056  1.0000
  C   C52       1.0  0.6534635497882545  0.7909001762959895  0.799962776328205  1.0000
  C   C53       1.0  0.5871745298766138  0.39479089863486727  0.5763330019327654  1.0000
  C   C54       1.0  0.41282546977897877  0.6052091014682881  0.4236669978730451  1.0000
  C   C55       1.0  0.6333669881639633  0.3051052620894683  0.5696727882613121  1.0000
  C   C56       1.0  0.36663301149162925  0.6948947380136872  0.4303272115444983  1.0000
  C   C57       1.0  0.22092224200199273  0.26815710852500835  0.5623545391747131  1.0000
  C   C58       1.0  0.7790777576535998  0.7318428915781471  0.4376454606310973  1.0000
  C   C59       1.0  0.1919036707715989  0.14890863028512263  0.5334607391801169  1.0000
  C   C60       1.0  0.8080963297317699  0.8510913701839626  0.46653926135381707  1.0000
  C   C61       1.0  0.04717595334108029  0.13808764816849733  0.9639620052202681  1.0000
  C   C62       1.0  0.9528240470265948  0.8619123519404653  0.03603799458691662  1.0000
  C   C63       1.0  0.13991294258966883  0.17738807605623222  0.9478998037906553  1.0000
  C   C64       1.0  0.8600870570659237  0.8226119240469232  0.05210019601515512  1.0000
  C   C65       1.0  0.16088378730047018  0.15598009399084242  0.8553743175746423  1.0000
  C   C66       1.0  0.8391162130672049  0.8440199061181203  0.1446256822325424  1.0000
  C   C67       1.0  0.08427276580224657  0.0916383423743393  0.7762277499151964  1.0000
  C   C68       1.0  0.9157272339890398  0.9083616580889388  0.22377225061736356  1.0000
  C   C69       1.0  0.9898547852981491  0.053047294869174755  0.7891808121367456  1.0000
  C   C70       1.0  0.01014521421185357  0.9469527045265647  0.21081918767245506  1.0000
  C   C71       1.0  0.9721846118499607  0.07683460244124832  0.8827491025760674  1.0000
  C   C72       1.0  0.027815387941325608  0.9231653980220296  0.11725089795649239  1.0000
  C   C73       1.0  0.9429954607102541  0.3817274191819953  0.06164667679348907  1.0000
  C   C74       1.0  0.05700453965742097  0.6182725809269674  0.9383533230136956  1.0000
  C   C75       1.0  0.04367361829240583  0.43409074318467095  0.0884003830830484  1.0000
  C   C76       1.0  0.9563263814988805  0.565909257278607  0.9115996174495115  1.0000
  C   C77       1.0  0.10616062896140535  0.43005887692887745  0.021636644009375115  1.0000
  C   C78       1.0  0.8938393714062696  0.569941123180085  0.9783633557978095  1.0000
  C   C79       1.0  0.06360667111717229  0.37111128261192  0.9232228505637144  1.0000
  C   C80       1.0  0.9363933285384202  0.6288887174912353  0.07677714924209603  1.0000
  C   C81       1.0  0.9636729574916302  0.3164972753099806  0.893317089142405  1.0000
  C   C82       1.0  0.03632704287604487  0.683502724798982  0.1066829106647796  1.0000
  C   C83       1.0  0.9046460977621461  0.3211945847710552  0.9627940114205732  1.0000
  C   C84       1.0  0.09535390202914004  0.6788054156922226  0.03720598911198671  1.0000
  C   C85       1.0  0.40917677097697586  0.05919582993056508  0.34158325092752306  1.0000
  C   C86       1.0  0.5908232293906992  0.9408041701783976  0.6584167488796616  1.0000
  C   C87       1.0  0.47322427243406406  0.9138180623807095  0.33889141024360564  1.0000
  C   C88       1.0  0.5267757272215285  0.08618193772244599  0.6611085895622048  1.0000
  C   C89       1.0  0.29477634375316425  0.9044748690693828  0.3391556657018681  1.0000
  C   C90       1.0  0.7052236559024283  0.09552513103377246  0.6608443341039424  1.0000
  N   N1        1.0  0.14537580975736344  0.35957051596051276  0.3927602776126096  1.0000
  N   N2        1.0  0.8546241897526392  0.6404294834352267  0.6072397221965912  1.0000
  N   N3        1.0  0.023952131308265213  0.4438831540033668  0.3874111648861756  1.0000
  N   N4        1.0  0.976047868483021  0.5561168464599112  0.6125888356463842  1.0000
  N   N5        1.0  0.6019080544618057  0.30734745993331897  0.351729205588323  1.0000
  N   N6        1.0  0.3980919451937868  0.6926525401698365  0.6482707942174877  1.0000
  N   N7        1.0  0.7478799496879138  0.2571981036767931  0.32755854880354385  1.0000
  N   N8        1.0  0.2521200498220889  0.7428018957189464  0.6724414510056568  1.0000
  N   N9        1.0  0.4276983489273825  0.4350961155731443  0.7392145377010062  1.0000
  N   N10       1.0  0.5723016512947028  0.5649038838284024  0.2607854621095687  1.0000
  N   N11       1.0  0.46868655447595997  0.5587376277319784  0.9015520149836506  1.0000
  N   N12       1.0  0.531313445891715  0.44126237237698424  0.09844798482353419  1.0000
  N   N13       1.0  0.3929670561594201  0.9637055225402313  0.3415832428048022  1.0000
  N   N14       1.0  0.6070329433505826  0.036294476855508184  0.6584167570043986  1.0000
  O   O1        1.0  0.4910944380576261  0.11168138608565908  0.3410109634358427  1.0000
  O   O2        1.0  0.5089055615979664  0.8883186140174962  0.6589890363699678  1.0000
  F   F1        1.0  0.21307099374024402  0.2409651091114656  0.0263314188980584  1.0000
  F   F2        1.0  0.7869290059054526  0.7590348906443964  0.9736685816378918  1.0000
  F   F3        1.0  0.09940011698903094  0.06610384318176536  0.6843424344372948  1.0000
  F   F4        1.0  0.9005998835143378  0.9338961572873197  0.31565756609663914  1.0000
  F   F5        1.0  0.9152194542715898  0.994576076040081  0.7115297791070898  1.0000
  F   F6        1.0  0.08478054537410672  0.005423923715781026  0.2884702214288603  1.0000
  F   F7        1.0  0.8789458094464495  0.039792601858319405  0.8924968556180288  1.0000
  F   F8        1.0  0.12105419020914295  0.9602073982448358  0.10750314418778151  1.0000
  F   F9        1.0  0.08298127351789081  0.49247543594428445  0.18471012666514336  1.0000
  F   F10       1.0  0.9170187259921119  0.507524563451455  0.8152898731440574  1.0000
  F   F11       1.0  0.1183448186880355  0.36496376880635745  0.8536820486435486  1.0000
  F   F12       1.0  0.8816551818153334  0.6350362316627277  0.14631795189038532  1.0000
  F   F13       1.0  0.9243568898617828  0.25901857821000107  0.7972292975429647  1.0000
  F   F14       1.0  0.07564311050589226  0.7409814218989617  0.20277070226421998  1.0000
  F   F15       1.0  0.808619646245179  0.26467298992198346  0.9315366801299697  1.0000
  F   F16       1.0  0.19138035341041348  0.7353270101811721  0.06846331967584085  1.0000
  S   S1        1.0  0.9645612750666824  0.2327176406358202  0.307892168034844  1.0000
  S   S2        1.0  0.03543872543668634  0.767282359833265  0.6921078324990899  1.0000
  S   S3        1.0  0.7566861821782437  0.45321614140305405  0.35467225926643275  1.0000
  S   S4        1.0  0.2433138173317591  0.5467838579926855  0.645327740542768  1.0000
  S   S5        1.0  0.5123179516255065  0.3763357170695454  0.8612237464249447  1.0000
  S   S6        1.0  0.4876820478844962  0.6236642823261941  0.13877625338425595  1.0000
  I   I1        1.0  0.018663712797840584  0.17406752587161586  0.10650532427854231  1.0000
  I   I2        1.0  0.9813362875698346  0.8259324742373466  0.8934946755286421  1.0000
  I   I3        1.0  0.3011558671249401  0.2275278599897275  0.8377854055753391  1.0000
  I   I4        1.0  0.6988441332427351  0.7724721401192353  0.16221459423184556  1.0000
  I   I5        1.0  0.8542147971009872  0.39677708175641496  0.16924566720960582  1.0000
  I   I6        1.0  0.14578520326668776  0.6032229183525478  0.8307543325975789  1.0000
  I   I7        1.0  0.2592022714664817  0.5091487977762855  0.06908863845527781  1.0000
  I   I8        1.0  0.7407977281891108  0.4908512023268698  0.9309113613505325  1.0000
