data_image0
_chemical_formula_structural       H88C116N8O12S4
_chemical_formula_sum              "H88 C116 N8 O12 S4"
_cell_length_a       8.594801675271906
_cell_length_b       12.97188162912187
_cell_length_c       20.588627698416484
_cell_angle_alpha    90.0
_cell_angle_beta     90.53458609774964
_cell_angle_gamma    90.0

_space_group_name_H-M_alt    "P 1"
_space_group_IT_number       1

loop_
  _space_group_symop_operation_xyz
  'x, y, z'

loop_
  _atom_site_type_symbol
  _atom_site_label
  _atom_site_symmetry_multiplicity
  _atom_site_fract_x
  _atom_site_fract_y
  _atom_site_fract_z
  _atom_site_occupancy
  H   H1        1.0  0.02438968712220888  0.6880533537989276  0.4724672755647973  1.0000
  H   H2        1.0  0.47561031341877036  0.1880533533796311  0.027532724356031085  1.0000
  H   H3        1.0  0.9756103127962066  0.31194664626876717  0.5275327242714904  1.0000
  H   H4        1.0  0.5243896864976398  0.8119466459171656  0.9724672759659533  1.0000
  H   H5        1.0  0.2143014820565251  0.7016687979611294  0.5092555931454893  1.0000
  H   H6        1.0  0.28569851854306794  0.20166879831273107  0.9907444067242647  1.0000
  H   H7        1.0  0.7856985178618904  0.2983312021065654  0.4907444066907985  1.0000
  H   H8        1.0  0.7143014825388905  0.7983312017549637  0.009255593117392017  1.0000
  H   H9        1.0  0.06596002987882887  0.6353943742052138  0.5513504909182488  1.0000
  H   H10       1.0  0.4340399695572213  0.13539437455681544  0.9486495089461364  1.0000
  H   H11       1.0  0.9340399700395866  0.364605625862481  0.44864950891803895  1.0000
  H   H12       1.0  0.5659600303611942  0.8646056255108794  0.05135049089015158  1.0000
  H   H13       1.0  0.3180569416024211  0.4200401441967868  0.48469589468989566  1.0000
  H   H14       1.0  0.1819430589385581  0.9200401446160833  0.015304105230932764  1.0000
  H   H15       1.0  0.6819430594795374  0.5799598551000099  0.5153041051517612  1.0000
  H   H16       1.0  0.8180569409778521  0.07995985545161155  0.9846958950910516  1.0000
  H   H17       1.0  0.23559780749059603  0.4696644676684755  0.557776466397557  1.0000
  H   H18       1.0  0.264402193108997  0.969664468087772  0.942223533472197  1.0000
  H   H19       1.0  0.7644021924278196  0.5303355323992194  0.4422235334387309  1.0000
  H   H20       1.0  0.7355978068074132  0.03033553197992283  0.057776466849787184  1.0000
  H   H21       1.0  0.3869122660770081  0.5384181547201491  0.5202304382488248  1.0000
  H   H22       1.0  0.1130877333570367  0.03841815430085266  0.979769562101257  1.0000
  H   H23       1.0  0.6130877338394021  0.46158184534754565  0.47976956207315963  1.0000
  H   H24       1.0  0.8869122665593735  0.9615818457668421  0.02023043822072734  1.0000
  H   H25       1.0  0.7487054516420304  0.8228135967597892  0.6465418058469293  1.0000
  H   H26       1.0  0.7512945488173643  0.3228135963404926  0.8534581939101867  1.0000
  H   H27       1.0  0.25129454827638514  0.17718640330790567  0.3534581939893585  1.0000
  H   H28       1.0  0.24870545110105116  0.677186402956304  0.1465418059261009  1.0000
  H   H29       1.0  0.9272787320958822  0.9357463008873992  0.7088689052036437  1.0000
  H   H30       1.0  0.5727212671999696  0.4357463012390009  0.7911310945481036  1.0000
  H   H31       1.0  0.07272126782253338  0.06425369918029564  0.2911310946326442  1.0000
  H   H32       1.0  0.42727873271844585  0.5642536988286939  0.20886890528818422  1.0000
  H   H33       1.0  0.02856412164696749  0.09770919024997311  0.6595021886520618  1.0000
  H   H34       1.0  0.47143587895262556  0.5977091906692696  0.8404978112176924  1.0000
  H   H35       1.0  0.9714358782714481  0.9022908098177217  0.340497811184226  1.0000
  H   H36       1.0  0.52856412096579  0.4022908093984252  0.15950218861859544  1.0000
  H   H37       1.0  0.9498758906943661  0.147752188525771  0.5481890353534603  1.0000
  H   H38       1.0  0.5501241097630233  0.6477521889450676  0.9518109648893524  1.0000
  H   H39       1.0  0.050124109224049494  0.8522478115419237  0.4518109644828275  1.0000
  H   H40       1.0  0.44987589015338686  0.3522478111226274  0.04818903543263188  1.0000
  H   H41       1.0  0.600898314089663  0.784581335305398  0.5449348893970759  1.0000
  H   H42       1.0  0.8991016863677264  0.2845813348861016  0.9550651108457368  1.0000
  H   H43       1.0  0.3991016858287525  0.21541866476229674  0.4550651104392119  1.0000
  H   H44       1.0  0.10089831354868387  0.7154186651815934  0.044934889476247575  1.0000
  H   H45       1.0  0.7937896869933216  0.11169246462651235  0.4467848736225357  1.0000
  H   H46       1.0  0.7062103134054538  0.6116924650458089  0.05321512667135127  1.0000
  H   H47       1.0  0.2062103129230885  0.8883075354411825  0.5532151266994485  1.0000
  H   H48       1.0  0.2937896865109564  0.3883075350218859  0.946784873650633  1.0000
  H   H49       1.0  0.6766302179786221  0.8725433120350025  0.3122450443310038  1.0000
  H   H50       1.0  0.8233697824201536  0.3725433116157059  0.18775495596288316  1.0000
  H   H51       1.0  0.32336978310333636  0.12745668803269242  0.687754955510653  1.0000
  H   H52       1.0  0.17663021749625668  0.6274566884519889  0.8122450443591012  1.0000
  H   H53       1.0  0.33995739508149536  0.8774467556385274  0.35833058483049735  1.0000
  H   H54       1.0  0.16004260545948387  0.377446755990129  0.14166941509033099  1.0000
  H   H55       1.0  0.6600426048369202  0.12255324442916748  0.6416694150057904  1.0000
  H   H56       1.0  0.8399573944569263  0.6225532440775657  0.8583305852316533  1.0000
  H   H57       1.0  0.43960257496672384  0.7704844598305655  0.32743671375184036  1.0000
  H   H58       1.0  0.060397424410712476  0.27048446018216715  0.17256328616361905  1.0000
  H   H59       1.0  0.5603974249496864  0.22951554023712936  0.6725632865701439  1.0000
  H   H60       1.0  0.939602575507703  0.7295155398855276  0.8274367136726689  1.0000
  H   H61       1.0  0.39276717370260766  0.9971869232108973  0.26699068779352864  1.0000
  H   H62       1.0  0.10723282567482868  0.497186923562499  0.2330093121219308  1.0000
  H   H63       1.0  0.6072328262158079  0.0028130768567975473  0.7330093120427591  1.0000
  H   H64       1.0  0.8927671742435869  0.5028130765051959  0.7669906877143571  1.0000
  H   H65       1.0  0.4133389640235666  0.900046093065556  0.16370469025617568  1.0000
  H   H66       1.0  0.08666103535386965  0.40004609264625957  0.3362953096592837  1.0000
  H   H67       1.0  0.5866610358948489  0.09995390700213878  0.8362953095801121  1.0000
  H   H68       1.0  0.9133389645645458  0.5999539074214353  0.6637046901770041  1.0000
  H   H69       1.0  0.3686335957602225  0.8166690117042905  0.23001097839848897  1.0000
  H   H70       1.0  0.1313664047807567  0.3166690120558922  0.26998902152233945  1.0000
  H   H71       1.0  0.631366404158193  0.18333098836340433  0.7699890214377987  1.0000
  H   H72       1.0  0.8686335951376589  0.6833309880118027  0.7300109783139483  1.0000
  H   H73       1.0  0.8766975202168468  0.12717440438991082  0.2011842564049089  1.0000
  H   H74       1.0  0.6233024790183858  0.627174404038309  0.2988157438836091  1.0000
  H   H75       1.0  0.12330247969956334  0.872825595677784  0.7988157439170752  1.0000
  H   H76       1.0  0.37669752089802444  0.3728255960293857  0.7011842564383752  1.0000
  H   H77       1.0  0.1250668854103062  0.05909832682090979  0.15898900006488118  1.0000
  H   H78       1.0  0.374933115130673  0.5590983272402062  0.3410109998559472  1.0000
  H   H79       1.0  0.8749331156696468  0.9409016732467851  0.8410110002624721  1.0000
  H   H80       1.0  0.6250668847877425  0.44090167282748854  0.6589889999803406  1.0000
  H   H81       1.0  0.1501504873777937  0.8713965146446684  0.1355595330741391  1.0000
  H   H82       1.0  0.34984951199964265  0.37139651499626997  0.3644404668413203  1.0000
  H   H83       1.0  0.8498495125406217  0.12860348542302652  0.8644404667621488  1.0000
  H   H84       1.0  0.650150487918773  0.6286034850714248  0.6355595329949675  1.0000
  H   H85       1.0  0.9251308616978791  0.7538142591470708  0.15261477548104577  1.0000
  H   H86       1.0  0.5748691387008965  0.25381425872777424  0.34738522481284123  1.0000
  H   H87       1.0  0.07486913821853118  0.2461857409206241  0.8473852248409386  1.0000
  H   H88       1.0  0.4251308612155137  0.7461857413399205  0.6526147755091432  1.0000
  C   C1        1.0  0.1669111573945683  0.5518107884927224  0.472212027678753  1.0000
  C   C2        1.0  0.3330888431464109  0.051810788844324086  0.02778797224207538  1.0000
  C   C3        1.0  0.8330888425238472  0.4481892115749724  0.5277879721575348  1.0000
  C   C4        1.0  0.6669111567720046  0.9481892112233707  0.9722120275942124  1.0000
  C   C5        1.0  0.11302629970981284  0.6506898668463559  0.5028399637106966  1.0000
  C   C6        1.0  0.386973699724232  0.15068986642705937  0.9971600366393849  1.0000
  C   C7        1.0  0.8869737002065973  0.3493101332213389  0.4971600366112876  1.0000
  C   C8        1.0  0.6130263001921782  0.8493101336406355  0.0028399636825993525  1.0000
  C   C9        1.0  0.28411937582137636  0.49033953375895717  0.5103202877383559  1.0000
  C   C10       1.0  0.21588062477821668  0.9903395341782537  0.9896797121313982  1.0000
  C   C11       1.0  0.7158806240970391  0.5096604663087376  0.48967971209793193  1.0000
  C   C12       1.0  0.7841193751401988  0.00966046588944114  0.010320287704889587  1.0000
  C   C13       1.0  0.7929216909807063  0.893550403202735  0.6249352146267978  1.0000
  C   C14       1.0  0.7070783094786884  0.3935504035543368  0.8750647851303184  1.0000
  C   C15       1.0  0.20707830893770926  0.10644959686495971  0.37506478520949  1.0000
  C   C16       1.0  0.29292169160327  0.6064495965133581  0.12493521471133838  1.0000
  C   C17       1.0  0.8922389182432183  0.9567046643517753  0.6596908545674138  1.0000
  C   C18       1.0  0.6077610822141711  0.456704664703377  0.8403091456753989  1.0000
  C   C19       1.0  0.10776108167519725  0.04329533571591949  0.34030914526887396  1.0000
  C   C20       1.0  0.392238918865782  0.5432953353643178  0.1596908546519544  1.0000
  C   C21       1.0  0.9491666231375414  0.04881079538827569  0.6317934542193261  1.0000
  C   C22       1.0  0.5508333761563051  0.5488107950366741  0.8682065460181176  1.0000
  C   C23       1.0  0.050833376780874115  0.9511892046794191  0.36820654561696176  1.0000
  C   C24       1.0  0.4491666237601051  0.45118920503102083  0.13179345430386663  1.0000
  C   C25       1.0  0.905112837145915  0.07711132884179067  0.5696917074532631  1.0000
  C   C26       1.0  0.5948871621499369  0.5771113292610872  0.930308292298484  1.0000
  C   C27       1.0  0.09488716277250064  0.9228886712259042  0.43030829238302465  1.0000
  C   C28       1.0  0.4051128377684786  0.42288867080660764  0.06969170753780375  1.0000
  C   C29       1.0  0.8016341028526104  0.014382892577522698  0.5328582807297265  1.0000
  C   C30       1.0  0.6983658964432415  0.514382892225921  0.9671417190220207  1.0000
  C   C31       1.0  0.19836589706580524  0.9856171074901722  0.46714171910656127  1.0000
  C   C32       1.0  0.301634103475174  0.4856171078417738  0.032858280814267116  1.0000
  C   C33       1.0  0.7456578674454255  0.9200011394806322  0.5610002456915008  1.0000
  C   C34       1.0  0.754342133011964  0.4200011390613357  0.938999754551312  1.0000
  C   C35       1.0  0.25434213247098475  0.07999886058706267  0.4389997546304835  1.0000
  C   C36       1.0  0.24565786690645156  0.5799988610063592  0.06100024528497588  1.0000
  C   C37       1.0  0.6455209732586518  0.85601540759293  0.5241964598555706  1.0000
  C   C38       1.0  0.8544790260372  0.35601540794453174  0.9758035398961766  1.0000
  C   C39       1.0  0.3544790266597638  0.14398459247476475  0.4758035399807171  1.0000
  C   C40       1.0  0.1455209738812155  0.6439845921231631  0.02419645994011124  1.0000
  C   C41       1.0  0.6024276953079757  0.8816573683747227  0.46150904137328636  1.0000
  C   C42       1.0  0.8975723050907999  0.38165736872632444  0.03849095892060066  1.0000
  C   C43       1.0  0.39757230460843457  0.11834263169297207  0.538490958948698  1.0000
  C   C44       1.0  0.1024276948256103  0.6183426313413704  0.9615090414013837  1.0000
  C   C45       1.0  0.6564879824038757  0.9757381382192604  0.4336508616271438  1.0000
  C   C46       1.0  0.8435120179969051  0.475738138570862  0.06634913818104675  1.0000
  C   C47       1.0  0.3435120175145397  0.024261861848434478  0.566349138209144  1.0000
  C   C48       1.0  0.15648798192151042  0.5242618614968328  0.9336508616552409  1.0000
  C   C49       1.0  0.7527419899202964  0.04065974737357394  0.46927754418062906  1.0000
  C   C50       1.0  0.7472580093169415  0.5406597477928704  0.030722455622192387  1.0000
  C   C51       1.0  0.2472580099981191  0.9593402519232226  0.5307224556556587  1.0000
  C   C52       1.0  0.25274199060147395  0.4593402522748244  0.9692775442140955  1.0000
  C   C53       1.0  0.6172637555423024  0.0033139687232028874  0.3658068388097943  1.0000
  C   C54       1.0  0.8827362448564733  0.5033139683716013  0.13419316148409266  1.0000
  C   C55       1.0  0.3827362443761131  0.996686031344492  0.6341931610264935  1.0000
  C   C56       1.0  0.11726375622347997  0.49668603169609365  0.8658068388432607  1.0000
  C   C57       1.0  0.568172233026234  0.9157894744684145  0.32147132490476094  1.0000
  C   C58       1.0  0.931827766211004  0.41578947482001627  0.17852867489806057  1.0000
  C   C59       1.0  0.43182776689218155  0.08421052482838202  0.6785286749315269  1.0000
  C   C60       1.0  0.06817223370741152  0.5842105252476785  0.8214713249382273  1.0000
  C   C61       1.0  0.4562541734369612  0.8415905072315268  0.3554086486884762  1.0000
  C   C62       1.0  0.04374582710401801  0.34159050681223035  0.14459135123235217  1.0000
  C   C63       1.0  0.5437458264814543  0.15840949283616795  0.6445913511478116  1.0000
  C   C64       1.0  0.9562541728143976  0.6584094932554645  0.8554086486039356  1.0000
  C   C65       1.0  0.5001626383222731  0.810917561596042  0.42401563538395326  1.0000
  C   C66       1.0  0.9998373620765024  0.31091756117674546  0.07598436490993367  1.0000
  C   C67       1.0  0.499837361594137  0.18908243847165285  0.575984364938031  1.0000
  C   C68       1.0  0.0001626378399078207  0.6890824388909493  0.9240156354120506  1.0000
  C   C69       1.0  0.5006230241035903  0.9549102585234225  0.25642860642045767  1.0000
  C   C70       1.0  0.9993769762951853  0.4549102588750241  0.24357139387342924  1.0000
  C   C71       1.0  0.49937697581281976  0.04508974154427237  0.7435713939015266  1.0000
  C   C72       1.0  0.0006230236212250486  0.5450897411926707  0.756428606448555  1.0000
  C   C73       1.0  0.6081509625321687  0.024429454342889515  0.21892529202862096  1.0000
  C   C74       1.0  0.8918490367030639  0.5244294539912878  0.2810747082598971  1.0000
  C   C75       1.0  0.3918490373842414  0.9755705457248053  0.7810747082933635  1.0000
  C   C76       1.0  0.10815096321334629  0.475570546076407  0.7189252920620872  1.0000
  C   C77       1.0  0.7554985971333833  0.9816673551362055  0.19738500863885217  1.0000
  C   C78       1.0  0.7445014032653923  0.4816673554878072  0.3026149916550348  1.0000
  C   C79       1.0  0.24450140278302687  0.01833264493148928  0.8026149916831322  1.0000
  C   C80       1.0  0.25549859781456086  0.5183326445798876  0.6973850086723185  1.0000
  C   C81       1.0  0.7717046181831666  0.8742853761893088  0.18462005187821187  1.0000
  C   C82       1.0  0.7282953810540713  0.3742853765409106  0.3153799479246096  1.0000
  C   C83       1.0  0.2282953817352489  0.12571462310748774  0.8153799479580759  1.0000
  C   C84       1.0  0.2717046188643442  0.6257146235267842  0.6846200519116782  1.0000
  C   C85       1.0  0.45778959716688145  0.8673708804696874  0.20948331717009763  1.0000
  C   C86       1.0  0.04221040337409778  0.36737088082128905  0.2905166827507307  1.0000
  C   C87       1.0  0.5422104027515341  0.1326291195980074  0.7905166826661902  1.0000
  C   C88       1.0  0.9577895965423124  0.6326291192464057  0.7094833175712536  1.0000
  C   C89       1.0  0.5560729667864572  0.12019425743908413  0.19939490707752494  1.0000
  C   C90       1.0  0.9439270336123183  0.6201942578583807  0.30060509321636203  1.0000
  C   C91       1.0  0.443927033129953  0.8798057426286107  0.8006050932444594  1.0000
  C   C92       1.0  0.05607296630409186  0.37980574220931423  0.6993949071056222  1.0000
  C   C93       1.0  0.41070733506595236  0.1600103484863907  0.21962582810794948  1.0000
  C   C94       1.0  0.08929266431148396  0.6600103481347891  0.2803741718075099  1.0000
  C   C95       1.0  0.5892926648524631  0.8399896515813041  0.7803741717283382  1.0000
  C   C96       1.0  0.9107073356069316  0.3399896511620076  0.7196258280287778  1.0000
  C   C97       1.0  0.6315596044749532  0.18523625860149492  0.15427291116156935  1.0000
  C   C98       1.0  0.8684403947602795  0.6852362582498932  0.3457270891269486  1.0000
  C   C99       1.0  0.368440395441457  0.8147637414661999  0.8457270891604151  1.0000
  C   C100      1.0  0.13155960515613074  0.31476374181780165  0.6542729111950356  1.0000
  C   C101      1.0  0.8861980071827766  0.045993273532545176  0.1882387849280706  1.0000
  C   C102      1.0  0.613801992052456  0.5459932739518417  0.3117612153604474  1.0000
  C   C103      1.0  0.11380199273363353  0.9540067265351496  0.8117612153939135  1.0000
  C   C104      1.0  0.38619800786395425  0.45400672611585313  0.6882387849615369  1.0000
  C   C105      1.0  0.02662317014157919  0.007660009768893217  0.16606179365252063  1.0000
  C   C106      1.0  0.4733768303994  0.5076600094172915  0.3339382062683078  1.0000
  C   C107      1.0  0.9733768297768364  0.9923399902988016  0.8339382061837671  1.0000
  C   C108      1.0  0.5266231695190154  0.4923399906504033  0.66606179356798  1.0000
  C   C109      1.0  0.04021822083147728  0.901999597632165  0.15328786009796677  1.0000
  C   C110      1.0  0.4597817785439537  0.40199959721286843  0.34671214030318914  1.0000
  C   C111      1.0  0.959781779084933  0.09800040243552986  0.8467121402240175  1.0000
  C   C112      1.0  0.5402182213724566  0.5980004028548264  0.6532878600187951  1.0000
  C   C113      1.0  0.915085972780641  0.8360112788613324  0.16280125811584562  1.0000
  C   C114      1.0  0.5849140276201398  0.33601127844203593  0.33719874169234487  1.0000
  C   C115      1.0  0.0849140271377745  0.16398872120636235  0.8371987417204421  1.0000
  C   C116      1.0  0.4150859722982757  0.6639887216256589  0.662801258143943  1.0000
  N   N1        1.0  0.29057476121729886  0.1947059803821982  0.2342316588411812  1.0000
  N   N2        1.0  0.20942523816013744  0.6947059800305965  0.2657683410742782  1.0000
  N   N3        1.0  0.7094252387011166  0.8052940196854967  0.7657683409951066  1.0000
  N   N4        1.0  0.7905747617582781  0.3052940200370983  0.7342316587620096  1.0000
  N   N5        1.0  0.6837682686595363  0.24318413628736968  0.11681396171418516  1.0000
  N   N6        1.0  0.8162317305756964  0.7431841367066662  0.3831860385743328  1.0000
  N   N7        1.0  0.3162317312568739  0.7568158630094269  0.8831860386077992  1.0000
  N   N8        1.0  0.18376826934071386  0.25681586336102863  0.6168139617476516  1.0000
  O   O1        1.0  0.11696433590360895  0.5228272816469657  0.41880743953171  1.0000
  O   O2        1.0  0.38303566347182205  0.022827281227669152  0.08119256086944586  1.0000
  O   O3        1.0  0.8830356640128013  0.47717271842072917  0.5811925607902743  1.0000
  O   O4        1.0  0.6169643364445881  0.9771727188400257  0.9188074394525385  1.0000
  O   O5        1.0  0.6310545965585588  0.09240593726271493  0.34549010530387453  1.0000
  O   O6        1.0  0.8689454038402168  0.5924059376820114  0.15450989499001244  1.0000
  O   O7        1.0  0.36894540335985676  0.9075940620340818  0.6545098945324133  1.0000
  O   O8        1.0  0.13105459607619344  0.40759406238568335  0.8454901053319718  1.0000
  O   O9        1.0  0.44791461663357396  0.7310550867740196  0.4480030152317312  1.0000
  O   O10       1.0  0.0520853827438624  0.23105508712562128  0.051996984683728265  1.0000
  O   O11       1.0  0.5520853832848416  0.2689449132936752  0.5519969846045566  1.0000
  O   O12       1.0  0.947914617174553  0.7689449129420736  0.9480030151525595  1.0000
  S   S1        1.0  0.6211606111508332  0.7840850780788792  0.19163840972379217  1.0000
  S   S2        1.0  0.8788393892499476  0.28408507765958263  0.30836159008439834  1.0000
  S   S3        1.0  0.3788393887675824  0.21591492198881568  0.8083615901124955  1.0000
  S   S4        1.0  0.12116061066846781  0.7159149224081122  0.6916384097518895  1.0000
