data_image0
_chemical_formula_structural       H160B8C108P4I8
_chemical_formula_sum              "H160 B8 C108 P4 I8"
_cell_length_a       20.08993280839442
_cell_length_b       7.8923668097162745
_cell_length_c       17.887612204872624
_cell_angle_alpha    90.0
_cell_angle_beta     93.20735304131809
_cell_angle_gamma    90.0

_space_group_name_H-M_alt    "P 1"
_space_group_IT_number       1

loop_
  _space_group_symop_operation_xyz
  'x, y, z'

loop_
  _atom_site_type_symbol
  _atom_site_label
  _atom_site_symmetry_multiplicity
  _atom_site_fract_x
  _atom_site_fract_y
  _atom_site_fract_z
  _atom_site_occupancy
  H   H1        1.0  0.25909557388542753  0.8778841641610267  0.6206856350405527  1.0000
  H   H2        1.0  0.7409044261572271  0.3778841647765755  0.8793143648398314  1.0000
  H   H3        1.0  0.7409044260223533  0.12211583587492272  0.3793143649342934  1.0000
  H   H4        1.0  0.25909557375055375  0.6221158352593739  0.12068563513501464  1.0000
  H   H5        1.0  0.3022432326625619  0.004115112840424045  0.5593731072713682  1.0000
  H   H6        1.0  0.6977567674099779  0.5041151134919223  0.9406268931689344  1.0000
  H   H7        1.0  0.6977567672751042  0.9958848871955253  0.4406268932633964  1.0000
  H   H8        1.0  0.3022432329954489  0.49588488654402707  0.059373106803670576  1.0000
  H   H9        1.0  0.3715219591284824  0.1301765547357947  0.6695288685530295  1.0000
  H   H10       1.0  0.6284780409141723  0.6301765541202459  0.8304711313273545  1.0000
  H   H11       1.0  0.6284780407792985  0.8698234453001547  0.33047113142181644  1.0000
  H   H12       1.0  0.3715219589936086  0.3698234459157035  0.1695288686474915  1.0000
  H   H13       1.0  0.377851353596853  0.905667659947113  0.666276635258363  1.0000
  H   H14       1.0  0.6221486464458016  0.40566765929561477  0.8337233646220209  1.0000
  H   H15       1.0  0.6221486463109278  0.09433234008883636  0.333723364716483  1.0000
  H   H16       1.0  0.3778513539596253  0.5943323394732875  0.16627663535058404  1.0000
  H   H17       1.0  0.32748162199518394  0.0021567750727252287  0.7318111497326844  1.0000
  H   H18       1.0  0.6725183780474707  0.5021567744571764  0.7681888501476997  1.0000
  H   H19       1.0  0.672518378410243  0.9978432249632241  0.2681888502399206  1.0000
  H   H20       1.0  0.3274816218603101  0.4978432243117259  0.23181114982714643  1.0000
  H   H21       1.0  0.2509180711510399  0.2023166178787124  0.7528538677178411  1.0000
  H   H22       1.0  0.7490819283939686  0.7023166185302107  0.7471461321647838  1.0000
  H   H23       1.0  0.749081928756741  0.7976833821572369  0.24714613225700482  1.0000
  H   H24       1.0  0.2509180715138123  0.2976833815057387  0.2528538678100622  1.0000
  H   H25       1.0  0.16775852534251684  0.2641321798973686  0.7318953270417955  1.0000
  H   H26       1.0  0.8322414747001378  0.7641321805488668  0.7681046728385886  1.0000
  H   H27       1.0  0.832241474565264  0.7358678201385808  0.26810467293305057  1.0000
  H   H28       1.0  0.167758525207643  0.23586781948708255  0.23189532713625746  1.0000
  H   H29       1.0  0.13082199377411777  0.9602358104631027  0.7272046843842891  1.0000
  H   H30       1.0  0.8691780062685369  0.4602358098116046  0.772795315496095  1.0000
  H   H31       1.0  0.8691780061336631  0.03976418957284654  0.272795315590557  1.0000
  H   H32       1.0  0.13082199363924393  0.5397641889572976  0.227204684478751  1.0000
  H   H33       1.0  0.1763066171803379  0.9989821215979997  0.8128646918251774  1.0000
  H   H34       1.0  0.8236933828623167  0.4989821209465014  0.6871353080552065  1.0000
  H   H35       1.0  0.823693383225089  0.0010178784379496924  0.18713530814742751  1.0000
  H   H36       1.0  0.1763066170454641  0.501017879089448  0.31286469191963945  1.0000
  H   H37       1.0  0.21435703464117523  0.8900018802157671  0.7403248862026  1.0000
  H   H38       1.0  0.7856429654313648  0.39000187956426896  0.7596751142377027  1.0000
  H   H39       1.0  0.7856429652666057  0.1099981198201822  0.25967511377224606  1.0000
  H   H40       1.0  0.21435703447641608  0.6099981204716804  0.24032488573714328  1.0000
  H   H41       1.0  0.1578547263500653  0.0508035523014945  0.5175576099534798  1.0000
  H   H42       1.0  0.8421452736925893  0.5508035529529928  0.9824423899269045  1.0000
  H   H43       1.0  0.8421452735577155  0.9491964477344548  0.48244239002136624  1.0000
  H   H44       1.0  0.1578547262151915  0.44919644708295664  0.017557610047941673  1.0000
  H   H45       1.0  0.14710652676384495  0.9366172148638061  0.6002005766201488  1.0000
  H   H46       1.0  0.8528934732788097  0.436617215479355  0.8997994232602353  1.0000
  H   H47       1.0  0.8528934731439359  0.06338278517214321  0.3997994233546972  1.0000
  H   H48       1.0  0.1471065266289711  0.5633827845565944  0.10020057671461084  1.0000
  H   H49       1.0  0.06953231351971498  0.17800966096385804  0.6422868939255684  1.0000
  H   H50       1.0  0.9304676865229397  0.6780096616153563  0.8577131059548156  1.0000
  H   H51       1.0  0.9304676868857119  0.8219903390720913  0.35771310604703666  1.0000
  H   H52       1.0  0.06953231338484114  0.3219903384205931  0.1422868940200303  1.0000
  H   H53       1.0  0.04012670685194305  0.06976941559813225  0.5600683801113497  1.0000
  H   H54       1.0  0.9598732931907117  0.5697694149825835  0.9399316197690342  1.0000
  H   H55       1.0  0.9598732930558377  0.930230584437817  0.4399316198634962  1.0000
  H   H56       1.0  0.04012670721471535  0.4302305850533659  0.06006838020357077  1.0000
  H   H57       1.0  0.07727770034331644  0.2723264860616971  0.5530824645574559  1.0000
  H   H58       1.0  0.9227222996993382  0.7723264867131954  0.946917535322928  1.0000
  H   H59       1.0  0.9227222995644644  0.7276735139742522  0.44691753541739004  1.0000
  H   H60       1.0  0.07727770020844262  0.22767351332275404  0.05308246465191794  1.0000
  H   H61       1.0  0.41727761383757367  0.6155800924025546  0.7677044871304579  1.0000
  H   H62       1.0  0.5827223862349663  0.11558009175105649  0.7322955133098449  1.0000
  H   H63       1.0  0.5827223860702072  0.3844199076333947  0.23229551284438812  1.0000
  H   H64       1.0  0.4172776141704607  0.8844199082848929  0.26770448666276014  1.0000
  H   H65       1.0  0.4841247864241898  0.4188899907604332  0.5616789150472458  1.0000
  H   H66       1.0  0.5158752136184649  0.9188899914119314  0.9383210848331383  1.0000
  H   H67       1.0  0.515875213483591  0.5811100092755161  0.4383210849276003  1.0000
  H   H68       1.0  0.48412478628931593  0.08111000862401795  0.061678915141707744  1.0000
  H   H69       1.0  0.31771587783567157  0.5401697314361469  0.8072664998483322  1.0000
  H   H70       1.0  0.6822841222368684  0.04016973205169581  0.6927335005919706  1.0000
  H   H71       1.0  0.6822841221019945  0.45983026859980236  0.19273350068643258  1.0000
  H   H72       1.0  0.31771587816855856  0.9598302679842535  0.30726649938063444  1.0000
  H   H73       1.0  0.24951357643230604  0.4629925075835854  0.7503045120411127  1.0000
  H   H74       1.0  0.7504864236103487  0.9629925069680365  0.7496954878392713  1.0000
  H   H75       1.0  0.7504864234754748  0.5370074924523639  0.24969548793373325  1.0000
  H   H76       1.0  0.2495135762974322  0.03700749306791279  0.25030451213557475  1.0000
  H   H77       1.0  0.2719846093224688  0.6775074637201545  0.7459719377966358  1.0000
  H   H78       1.0  0.7280153907201858  0.17750746433570327  0.7540280620837481  1.0000
  H   H79       1.0  0.728015390585312  0.3224925363157949  0.25402806217821006  1.0000
  H   H80       1.0  0.271984609187595  0.822492535700246  0.24597193789109792  1.0000
  H   H81       1.0  0.5604202427820706  0.46541888745944526  0.7049039141531728  1.0000
  H   H82       1.0  0.4395797572605842  0.9654188881109435  0.7950960857272112  1.0000
  H   H83       1.0  0.4395797571257103  0.5345811125765041  0.29509608582167324  1.0000
  H   H84       1.0  0.5604202426471967  0.034581111925005875  0.20490391424763474  1.0000
  H   H85       1.0  0.5316803149909242  0.6612375014774067  0.7399386617865785  1.0000
  H   H86       1.0  0.4683196850517305  0.16123750082590843  0.7600613380938055  1.0000
  H   H87       1.0  0.46831968491685666  0.33876249855854274  0.2600613381882675  1.0000
  H   H88       1.0  0.5316803153536964  0.8387624992100409  0.23993866187879948  1.0000
  H   H89       1.0  0.5541037073839388  0.6440691585370877  0.6455288704407955  1.0000
  H   H90       1.0  0.445896292658716  0.14406915788558947  0.8544711294395885  1.0000
  H   H91       1.0  0.4458962930214883  0.35593084149886167  0.35447112953180954  1.0000
  H   H92       1.0  0.5541037072490649  0.8559308421503599  0.14552887053525748  1.0000
  H   H93       1.0  0.4151002626085111  0.32338521403464177  0.4704296214647289  1.0000
  H   H94       1.0  0.5848997376620421  0.82338521468614  0.029570378602338084  1.0000
  H   H95       1.0  0.5848997372992698  0.6766147860013075  0.5295703785101171  1.0000
  H   H96       1.0  0.41510026274338496  0.17661478534980943  0.9704296213702671  1.0000
  H   H97       1.0  0.327196521975833  0.34508506455212634  0.4697315393448451  1.0000
  H   H98       1.0  0.6728034782947202  0.8450850652036245  0.03026846072222192  1.0000
  H   H99       1.0  0.672803478429594  0.6549149354838231  0.53026846062776  1.0000
  H   H100      1.0  0.3271965216130606  0.1549149348323248  0.969731539252624  1.0000
  H   H101      1.0  0.3676654894534346  0.16808770575219764  0.5135252351450946  1.0000
  H   H102      1.0  0.6323345105892201  0.6680877064036959  0.9864747647352894  1.0000
  H   H103      1.0  0.6323345104543462  0.8319122942837517  0.4864747648297514  1.0000
  H   H104      1.0  0.3676654893185608  0.3319122936322535  0.013525235239556678  1.0000
  H   H105      1.0  0.12012884792568537  0.05383853921701789  0.33710943786325875  1.0000
  H   H106      1.0  0.8798711523448677  0.553838538601469  0.16289056220380818  1.0000
  H   H107      1.0  0.8798711519820956  0.9461614608189314  0.6628905621115871  1.0000
  H   H108      1.0  0.1201288480605592  0.4461614614344803  0.8371094377687968  1.0000
  H   H109      1.0  0.00161220690590966  0.4964240137922388  0.3704205372344637  1.0000
  H   H110      1.0  0.9983877933646433  0.996424014443737  0.12957946283260324  1.0000
  H   H111      1.0  0.9983877930018711  0.5035759849766634  0.6295794627403823  1.0000
  H   H112      1.0  0.0016122065431373631  0.003575985592212306  0.8704205371422428  1.0000
  H   H113      1.0  0.22284033733531505  0.01711725940483202  0.39644619688062205  1.0000
  H   H114      1.0  0.7771596624375919  0.5171172587892832  0.10355380318868593  1.0000
  H   H115      1.0  0.7771596625724658  0.9828827406311174  0.603553803094224  1.0000
  H   H116      1.0  0.2228403374701889  0.4828827412466662  0.8964461967861601  1.0000
  H   H117      1.0  0.2521992260113438  0.14655255234412762  0.47261900934267387  1.0000
  H   H118      1.0  0.7478007742592093  0.6465525517285787  0.027380990724393206  1.0000
  H   H119      1.0  0.7478007743940831  0.8534474476918217  0.5273809906299313  1.0000
  H   H120      1.0  0.2521992256485715  0.3534474483073705  0.9726190092504527  1.0000
  H   H121      1.0  0.2656392055460299  0.20964542701728303  0.3808750045442608  1.0000
  H   H122      1.0  0.7343607947245232  0.7096454276687811  0.11912499552280616  1.0000
  H   H123      1.0  0.734360794361751  0.7903545730186663  0.6191249954305852  1.0000
  H   H124      1.0  0.2656392056809037  0.2903545723671681  0.8808750044497988  1.0000
  H   H125      1.0  0.9817349737160619  0.2822808257286372  0.2544469003210209  1.0000
  H   H126      1.0  0.01826502655449119  0.7822808263801354  0.24555309974604608  1.0000
  H   H127      1.0  0.018265026191718898  0.7177191743073121  0.7455530996538252  1.0000
  H   H128      1.0  0.9817349733532896  0.21771917365581395  0.7544469002287999  1.0000
  H   H129      1.0  0.9533951332545387  0.16539403216700296  0.33032343039632267  1.0000
  H   H130      1.0  0.046604866986129014  0.6653940328185012  0.16967656911082563  1.0000
  H   H131      1.0  0.04660486665324201  0.8346059678689464  0.6696765695785234  1.0000
  H   H132      1.0  0.9533951334192979  0.3346059672174482  0.8303234308617793  1.0000
  H   H133      1.0  0.012527165456350681  0.0742533303544045  0.2720506721206008  1.0000
  H   H134      1.0  0.9874728343165563  0.5742533297388557  0.2279493279487072  1.0000
  H   H135      1.0  0.9874728344514302  0.9257466696815448  0.7279493278542452  1.0000
  H   H136      1.0  0.0125271655912245  0.4257466702970937  0.7720506720261388  1.0000
  H   H137      1.0  0.05777804648773098  0.7433774115487309  0.4133507818165804  1.0000
  H   H138      1.0  0.9422219532552908  0.2433774121642798  0.08664921769280888  1.0000
  H   H139      1.0  0.94222195342005  0.25662258848721836  0.5866492181582655  1.0000
  H   H140      1.0  0.057778046652490075  0.7566225878716695  0.913350782282037  1.0000
  H   H141      1.0  0.1309149725047252  0.7379505325107127  0.4736007902781831  1.0000
  H   H142      1.0  0.8690850272681818  0.23795053185921458  0.02639920979112491  1.0000
  H   H143      1.0  0.8690850274030557  0.26204946752523656  0.5263992096966629  1.0000
  H   H144      1.0  0.13091497263959898  0.7620494681767347  0.973600790183721  1.0000
  H   H145      1.0  0.05357661692465946  0.6696515579450111  0.5064492873269271  1.0000
  H   H146      1.0  0.9464233831179951  0.16965155729351286  0.9935507125534567  1.0000
  H   H147      1.0  0.9464233829831213  0.3303484420909383  0.493550712647919  1.0000
  H   H148      1.0  0.05357661678978563  0.8303484427424365  0.0064492874213890605  1.0000
  H   H149      1.0  0.5013506460985454  0.04698338393794578  0.3625150065717161  1.0000
  H   H150      1.0  0.49864935367436153  0.5469833833223969  0.1374849934975919  1.0000
  H   H151      1.0  0.4986493538092353  0.9530166160980035  0.6374849934031299  1.0000
  H   H152      1.0  0.5013506462334193  0.45301661671355237  0.8625150064772541  1.0000
  H   H153      1.0  0.4221467706756187  0.8388332992645078  0.41352985427892813  1.0000
  H   H154      1.0  0.5778532295949345  0.33883329861300954  0.08647014578813887  1.0000
  H   H155      1.0  0.5778532297298082  0.16116670077144157  0.5864701456936768  1.0000
  H   H156      1.0  0.42214677031284636  0.6611667014229398  0.9135298541867072  1.0000
  H   H157      1.0  0.42100617316543715  0.7909894687503031  0.5501318904162982  1.0000
  H   H158      1.0  0.5789938268772176  0.2909894680988049  0.9498681094640858  1.0000
  H   H159      1.0  0.5789938267423437  0.2090105312856463  0.4498681095585479  1.0000
  H   H160      1.0  0.4210061730305633  0.7090105319371445  0.05013189051076014  1.0000
  B   B1        1.0  0.2510518116472521  0.38612929726584194  0.5876592447095909  1.0000
  B   B2        1.0  0.7489481883954026  0.8861292979173401  0.9123407551707933  1.0000
  B   B3        1.0  0.7489481887581749  0.6138707015030603  0.41234075526301417  1.0000
  B   B4        1.0  0.25105181151237826  0.11387070211860921  0.0876592448040528  1.0000
  B   B5        1.0  0.21493340537398334  0.4620234662067218  0.5053774610579832  1.0000
  B   B6        1.0  0.7850665946686713  0.962023465591173  0.9946225388224007  1.0000
  B   B7        1.0  0.7850665945337975  0.5379765338292275  0.49462253891686275  1.0000
  B   B8        1.0  0.21493340573675562  0.03797653444477638  0.005377461150204204  1.0000
  C   C1        1.0  0.2850668890829213  0.00013329208149637667  0.616523364668703  1.0000
  C   C2        1.0  0.7149331109597333  0.5001332927329946  0.883476635211681  1.0000
  C   C3        1.0  0.7149331108248596  0.999866707954453  0.38347663530614307  1.0000
  C   C4        1.0  0.2850668889480475  0.4998667073029548  0.11652336476316498  1.0000
  C   C5        1.0  0.3436512714515488  0.011704221588672055  0.6743604895989879  1.0000
  C   C6        1.0  0.6563487285911058  0.5117042222401702  0.825639510281396  1.0000
  C   C7        1.0  0.656348728456232  0.9882957784472773  0.32563951037585803  1.0000
  C   C8        1.0  0.34365127131667494  0.4882957777957791  0.17436048969344992  1.0000
  C   C9        1.0  0.20414658952969905  0.1633090758545642  0.7231001462385404  1.0000
  C   C10       1.0  0.7958534105129557  0.6633090752390154  0.7768998536418437  1.0000
  C   C11       1.0  0.7958534103780818  0.8366909241813851  0.2768998537363056  1.0000
  C   C12       1.0  0.20414658939482525  0.33669092479693397  0.2231001463330024  1.0000
  C   C13       1.0  0.1801173876839176  0.9934987208586015  0.752105945179025  1.0000
  C   C14       1.0  0.8198826123587369  0.4934987202071033  0.7478940547013592  1.0000
  C   C15       1.0  0.8198826122238632  0.0065012791773478885  0.2478940547958211  1.0000
  C   C16       1.0  0.1801173875490438  0.5065012798288461  0.2521059452734869  1.0000
  C   C17       1.0  0.14729278884894786  0.06565577126522687  0.5767069188501187  1.0000
  C   C18       1.0  0.8527072111937068  0.565655771916725  0.9232930810302654  1.0000
  C   C19       1.0  0.8527072115564791  0.9343442287707225  0.4232930811224862  1.0000
  C   C20       1.0  0.14729278871407403  0.43434422811922424  0.07670691894458075  1.0000
  C   C21       1.0  0.08001652139904776  0.15229429003733921  0.583784767471912  1.0000
  C   C22       1.0  0.9199834786734922  0.6522942906888374  0.9162152329683907  1.0000
  C   C23       1.0  0.9199834785087331  0.8477057099986102  0.4162152325029341  1.0000
  C   C24       1.0  0.08001652123428864  0.3477057093471119  0.08378476700645526  1.0000
  C   C25       1.0  0.32462986083628825  0.43547153380768355  0.6215367819722657  1.0000
  C   C26       1.0  0.6753701392362517  0.9354715344591817  0.878463218468037  1.0000
  C   C27       1.0  0.6753701395691387  0.5645284662282658  0.3784632180003393  1.0000
  C   C28       1.0  0.32462986067152916  0.06452846557676763  0.12153678150680904  1.0000
  C   C29       1.0  0.34093529065104444  0.5106414345869565  0.6925318327614868  1.0000
  C   C30       1.0  0.6590647093916102  0.0106414352025054  0.8074681671188971  1.0000
  C   C31       1.0  0.6590647092567363  0.4893585654489928  0.3074681672133592  1.0000
  C   C32       1.0  0.34093529101381675  0.9893585648334439  0.1925318328537078  1.0000
  C   C33       1.0  0.40708100719005413  0.5565105836937014  0.7129688864542965  1.0000
  C   C34       1.0  0.5929189928824858  0.056510583042203216  0.7870311139860062  1.0000
  C   C35       1.0  0.5929189927177267  0.4434894163422479  0.2870311135205495  1.0000
  C   C36       1.0  0.40708100702529504  0.9434894169937461  0.21296888598883976  1.0000
  C   C37       1.0  0.45970787409686414  0.5283991545940222  0.6671489976350754  1.0000
  C   C38       1.0  0.5402921259457905  0.028399155209571102  0.8328510022453085  1.0000
  C   C39       1.0  0.5402921258109167  0.47160084544192704  0.3328510023397706  1.0000
  C   C40       1.0  0.4597078744596364  0.9716008448263782  0.1671489977272964  1.0000
  C   C41       1.0  0.4443421680503783  0.44791811445559077  0.5988430308317484  1.0000
  C   C42       1.0  0.5556578319922764  0.9479181138400419  0.9011569690486356  1.0000
  C   C43       1.0  0.5556578318574026  0.5520818855803585  0.40115696914309756  1.0000
  C   C44       1.0  0.4443421684131506  0.05208188619590742  0.09884303092396944  1.0000
  C   C45       1.0  0.37929060657321506  0.4009423910840451  0.5760402623703583  1.0000
  C   C46       1.0  0.6207093934694397  0.9009423904684962  0.9239597375100258  1.0000
  C   C47       1.0  0.6207093938322119  0.5990576089519043  0.4239597376022467  1.0000
  C   C48       1.0  0.3792906064383413  0.09905760956745308  0.07604026246482033  1.0000
  C   C49       1.0  0.29220722258887405  0.5483891618762196  0.7514987009643527  1.0000
  C   C50       1.0  0.7077927774537807  0.04838916249176833  0.7485012989160313  1.0000
  C   C51       1.0  0.7077927773189068  0.45161083815972985  0.2485012990104933  1.0000
  C   C52       1.0  0.2922072224540002  0.951610837544181  0.25149870105881467  1.0000
  C   C53       1.0  0.5299151202881986  0.5779291282286426  0.6907368047911308  1.0000
  C   C54       1.0  0.47008487975445595  0.07792912757714444  0.8092631950892533  1.0000
  C   C55       1.0  0.47008488011722827  0.42207087180730674  0.3092631951814742  1.0000
  C   C56       1.0  0.5299151201533249  0.9220708724588049  0.1907368048855928  1.0000
  C   C57       1.0  0.37137337347534044  0.3051335192676598  0.5035534053329596  1.0000
  C   C58       1.0  0.6286266265673142  0.805133518652111  0.9964465945474245  1.0000
  C   C59       1.0  0.6286266264324404  0.6948664807682895  0.4964465946418864  1.0000
  C   C60       1.0  0.37137337334046666  0.19486648011679128  0.0035534054274216644  1.0000
  C   C61       1.0  0.1564976270346074  0.3994898040114465  0.4487368922490267  1.0000
  C   C62       1.0  0.8435023732359458  0.8994898046629447  0.05126310781804035  1.0000
  C   C63       1.0  0.8435023728731735  0.6005101960245028  0.5512631077258193  1.0000
  C   C64       1.0  0.1564976271694812  0.10051019537300464  0.9487368921545647  1.0000
  C   C65       1.0  0.16421376215202496  0.2426848797298685  0.41102779273622636  1.0000
  C   C66       1.0  0.8357862381185283  0.7426848791143196  0.08897220733084063  1.0000
  C   C67       1.0  0.8357862377557559  0.7573151203060808  0.5889722072386196  1.0000
  C   C68       1.0  0.16421376228689877  0.25731512092162967  0.9110277926417643  1.0000
  C   C69       1.0  0.11262490832024362  0.17631029874168047  0.3639484380812724  1.0000
  C   C70       1.0  0.8873750919204243  0.6763102981261316  0.1360515614258759  1.0000
  C   C71       1.0  0.8873750915875372  0.8236897012942689  0.6360515618935736  1.0000
  C   C72       1.0  0.11262490848500274  0.3236897019098177  0.8639484385467291  1.0000
  C   C73       1.0  0.05290092959351283  0.26351379505570216  0.34952048519841555  1.0000
  C   C74       1.0  0.9470990706770402  0.7635137957072003  0.15047951486865146  1.0000
  C   C75       1.0  0.947099070314268  0.7364862049802472  0.6504795147764305  1.0000
  C   C76       1.0  0.052900929728386656  0.23648620432874903  0.8495204851039535  1.0000
  C   C77       1.0  0.0469598865575138  0.42271127285832955  0.3825822693398779  1.0000
  C   C78       1.0  0.9530401137130392  0.9227112722427807  0.11741773072718913  1.0000
  C   C79       1.0  0.953040113350267  0.5772887271776198  0.6174177306349681  1.0000
  C   C80       1.0  0.046959886692387626  0.0772887265261216  0.8825822692454159  1.0000
  C   C81       1.0  0.09715191444749383  0.4931733716694708  0.43035936777517925  1.0000
  C   C82       1.0  0.902848085325413  0.993173371053922  0.06964063229412874  1.0000
  C   C83       1.0  0.9028480854602868  0.5068266283664785  0.5696406321996668  1.0000
  C   C84       1.0  0.09715191458236765  0.006826628982027368  0.9303593676807173  1.0000
  C   C85       1.0  0.2291534392289424  0.14825188415717627  0.4157545134161731  1.0000
  C   C86       1.0  0.7708465610416106  0.6482518835416274  0.08424548665089386  1.0000
  C   C87       1.0  0.7708465606788384  0.8517481158787731  0.5842454865586729  1.0000
  C   C88       1.0  0.22915343886617015  0.3517481164943219  0.9157545133239522  1.0000
  C   C89       1.0  0.9976731287450045  0.19226307729791767  0.29886387042067464  1.0000
  C   C90       1.0  0.002326871027902477  0.6922630779494158  0.2011361296486334  1.0000
  C   C91       1.0  0.0023268711627763023  0.8077369227380317  0.7011361295541714  1.0000
  C   C92       1.0  0.9976731288798784  0.30773692208653347  0.7988638703262125  1.0000
  C   C93       1.0  0.08470084258091075  0.670471760573205  0.45773639191659554  1.0000
  C   C94       1.0  0.9152991576896422  0.17047175992170682  0.04226360815047145  1.0000
  C   C95       1.0  0.9152991573268702  0.32952823946274434  0.5422636080582505  1.0000
  C   C96       1.0  0.08470084271578457  0.8295282388471955  0.9577363918221334  1.0000
  C   C97       1.0  0.5008093871780671  0.026405591000083273  0.4227822407757896  1.0000
  C   C98       1.0  0.49919061256495467  0.5264055903845344  0.07721775873359973  1.0000
  C   C99       1.0  0.49919061272971377  0.973594409035866  0.5772177591990565  1.0000
  C   C100      1.0  0.5008093873428262  0.4735944096514149  0.9227822412412464  1.0000
  C   C101      1.0  0.4564023423166066  0.9098642160371347  0.4512683164354477  1.0000
  C   C102      1.0  0.5435976574563004  0.4098642153856365  0.04873168363386033  1.0000
  C   C103      1.0  0.5435976575911742  0.09013578399881465  0.5487316835393983  1.0000
  C   C104      1.0  0.4564023424514804  0.5901357846503128  0.9512683163409855  1.0000
  C   C105      1.0  0.45549547271818475  0.8831613428583883  0.5284412424476775  1.0000
  C   C106      1.0  0.5445045273543553  0.3831613422068902  0.9715587579926251  1.0000
  C   C107      1.0  0.5445045271895961  0.11683865717756092  0.47155875752716847  1.0000
  C   C108      1.0  0.45549547255342554  0.6168386578290591  0.028441241982220797  1.0000
  P   P1        1.0  0.22085429904973108  0.16371489454966806  0.6238418882083566  1.0000
  P   P2        1.0  0.7791457009929237  0.6637148939341192  0.8761581116720275  1.0000
  P   P3        1.0  0.7791457008580498  0.8362851054862813  0.3761581117664894  1.0000
  P   P4        1.0  0.22085429891485725  0.3362851061018301  0.12384188830281859  1.0000
  I   I1        1.0  0.2706289494990688  0.6766694996265624  0.4532571227634928  1.0000
  I   I2        1.0  0.7293710502738382  0.1766694989750642  0.04674287730581527  1.0000
  I   I3        1.0  0.729371050408712  0.32333050040938693  0.5467428772113533  1.0000
  I   I4        1.0  0.27062894963394263  0.8233305010608851  0.9532571226690308  1.0000
  I   I5        1.0  0.16328871640099443  0.5678364206897664  0.6248774827372776  1.0000
  I   I6        1.0  0.8367112836416601  0.0678364200382682  0.8751225171431064  1.0000
  I   I7        1.0  0.8367112840044326  0.43216357934618294  0.3751225172353274  1.0000
  I   I8        1.0  0.16328871626612063  0.9321635799976812  0.12487748283173956  1.0000
