data_image0
_chemical_formula_structural       H82B4C56N8Br4
_chemical_formula_sum              "H82 B4 C56 N8 Br4"
_cell_length_a       8.714592939059868
_cell_length_b       9.43333730617087
_cell_length_c       18.322424494398255
_cell_angle_alpha    86.50493524831242
_cell_angle_beta     84.02182193808446
_cell_angle_gamma    72.74421007275808

_space_group_name_H-M_alt    "P 1"
_space_group_IT_number       1

loop_
  _space_group_symop_operation_xyz
  'x, y, z'

loop_
  _atom_site_type_symbol
  _atom_site_label
  _atom_site_symmetry_multiplicity
  _atom_site_fract_x
  _atom_site_fract_y
  _atom_site_fract_z
  _atom_site_occupancy
  H   H1        1.0  0.43777434990257685  0.6356800304010978  0.4260824412764518  1.0000
  H   H2        1.0  0.5622256495666195  0.36431996930582705  0.5739175587620435  1.0000
  H   H3        1.0  0.5991998747948767  0.5742546470511256  0.35741948078790714  1.0000
  H   H4        1.0  0.4008001246743198  0.4257453526557993  0.642580519250588  1.0000
  H   H5        1.0  0.5572580518437811  0.4463348719371108  0.42750013249424207  1.0000
  H   H6        1.0  0.4427419476254154  0.5536651277698141  0.5724998675442531  1.0000
  H   H7        1.0  0.2851279790688376  0.577047281671277  0.24626064729939648  1.0000
  H   H8        1.0  0.7148720200492187  0.42295271914546567  0.7537393527419907  1.0000
  H   H9        1.0  0.47000822318595487  0.6214603071686785  0.2509774209571328  1.0000
  H   H10       1.0  0.5299917759321013  0.37853969364806406  0.7490225790842543  1.0000
  H   H11       1.0  0.2907312276577595  0.7208867570202312  0.30348175418318324  1.0000
  H   H12       1.0  0.7092687714602968  0.27911324379651153  0.6965182458582039  1.0000
  H   H13       1.0  0.958153220650048  0.2957440086853176  0.24166049245962304  1.0000
  H   H14       1.0  0.041846779968294424  0.7042559910158784  0.7583395075796838  1.0000
  H   H15       1.0  0.8334013676093395  0.4846122752104416  0.24960769724314155  1.0000
  H   H16       1.0  0.16659863300900285  0.5153877244907544  0.7503923027961652  1.0000
  H   H17       1.0  0.8225491463316914  0.34949774694326624  0.3211757421274153  1.0000
  H   H18       1.0  0.17745085428665106  0.6505022527579297  0.6788242579118916  1.0000
  H   H19       1.0  0.05974359645703123  0.5785442184849137  0.3854642017028336  1.0000
  H   H20       1.0  0.9402564042700983  0.42145578125727823  0.6145357977874426  1.0000
  H   H21       1.0  0.877212971841445  0.5290540582052845  0.40506984583629985  1.0000
  H   H22       1.0  0.12278702762775152  0.4709459415016404  0.5949301542021953  1.0000
  H   H23       1.0  0.8988701752133582  0.6467204442684249  0.32707055383230965  1.0000
  H   H24       1.0  0.10112982540498425  0.35327955543277106  0.6729294462069971  1.0000
  H   H25       1.0  0.4911349036840492  0.059233262983344664  0.12127145210572779  1.0000
  H   H26       1.0  0.5088650969342932  0.9407667367178514  0.8787285479335791  1.0000
  H   H27       1.0  0.2939875203131505  0.11767435187966989  0.08985286163724132  1.0000
  H   H28       1.0  0.7060124791560458  0.8823256478272549  0.9101471384012539  1.0000
  H   H29       1.0  0.2208914958881756  0.9394331182250315  0.17545928568138217  1.0000
  H   H30       1.0  0.7791085047301668  0.0605668814761646  0.8245407143579246  1.0000
  H   H31       1.0  0.41675963165966123  0.8942849700274441  0.20932503398248242  1.0000
  H   H32       1.0  0.5832403678095351  0.10571502967948067  0.7906749660560128  1.0000
  H   H33       1.0  0.6689464906633349  0.5101461421921625  0.11780936931364297  1.0000
  H   H34       1.0  0.3310535096038674  0.4898538586188513  0.8821906307285557  1.0000
  H   H35       1.0  0.18752269132153382  0.6814666028111754  0.05227455442323959  1.0000
  H   H36       1.0  0.8124773089456686  0.31853339799983826  0.9477254456189592  1.0000
  H   H37       1.0  0.6022928166879388  0.27866213513191684  0.2523076459989233  1.0000
  H   H38       1.0  0.3977071827812575  0.7213378645750081  0.7476923540395719  1.0000
  H   H39       1.0  0.7532616417048196  0.2760244297375227  0.17917295565395044  1.0000
  H   H40       1.0  0.24673835891352297  0.7239755699636732  0.8208270443853565  1.0000
  H   H41       1.0  0.6393163959313585  0.1474902003760277  0.18292895033885087  1.0000
  H   H42       1.0  0.36068360353783796  0.8525097993308971  0.8170710496996444  1.0000
  H   H43       1.0  0.5490281417997156  0.7820968859667646  0.07705721122200386  1.0000
  H   H44       1.0  0.450971858818627  0.21790311373443125  0.9229427888173031  1.0000
  H   H45       1.0  0.3699579363234065  0.8292793876080206  0.028549016958086464  1.0000
  H   H46       1.0  0.630042064294936  0.17072061209317552  0.9714509830812202  1.0000
  H   H47       1.0  0.5528271527319806  0.7051160840009494  0.9908039628626734  1.0000
  H   H48       1.0  0.44717284673721597  0.2948839157059754  0.009196037175821778  1.0000
  H   H49       1.0  0.05779635315798358  0.35370390319743233  0.13068081265647788  1.0000
  H   H50       1.0  0.9422036463112129  0.6462960965094926  0.8693191873820173  1.0000
  H   H51       1.0  0.04214656262456692  0.4687251035264619  0.05005597339063806  1.0000
  H   H52       1.0  0.9578534379937755  0.5312748961747341  0.9499440266486687  1.0000
  H   H53       1.0  0.9777548948664609  0.5500029141503334  0.13679734985529637  1.0000
  H   H54       1.0  0.022245104251595264  0.44999708666640925  0.8632026501860908  1.0000
  H   H55       1.0  0.9159981470629502  0.8656447452812284  0.4146751895344804  1.0000
  H   H56       1.0  0.08400185355539226  0.13435525441996762  0.5853248105048264  1.0000
  H   H57       1.0  0.37187734638487935  0.8657745147315794  0.4841916342215604  1.0000
  H   H58       1.0  0.628122653084317  0.13422548497534545  0.5158083658169348  1.0000
  H   H59       1.0  0.970398426642124  0.06792000243484896  0.23547308895240537  1.0000
  H   H60       1.0  0.02960157282707229  0.9320799972720758  0.7645269110860899  1.0000
  H   H61       1.0  0.8165750523451097  0.07695388789057836  0.3079159166628301  1.0000
  H   H62       1.0  0.1834249471240866  0.9230461118163464  0.6920840833756652  1.0000
  H   H63       1.0  0.9124654950716201  0.9072828712458807  0.2652356032303332  1.0000
  H   H64       1.0  0.08753450439757642  0.09271712846104402  0.7347643968081622  1.0000
  H   H65       1.0  0.9834985940120556  0.7918025936220706  0.5440665684046968  1.0000
  H   H66       1.0  0.016501405457140843  0.20819740608485426  0.45593343163379835  1.0000
  H   H67       1.0  0.17868428653330487  0.7815781715497873  0.5693435640905057  1.0000
  H   H68       1.0  0.8213157137338977  0.21842182926122636  0.4306564359516932  1.0000
  H   H69       1.0  0.15398332402317472  0.6457822272032091  0.5124687854963881  1.0000
  H   H70       1.0  0.8460166754460217  0.3542177725037157  0.48753121454210724  1.0000
  H   H71       1.0  0.5560616793199047  0.9074123701523781  0.31950128160876917  1.0000
  H   H72       1.0  0.4439383212984377  0.09258762954881783  0.6804987184305377  1.0000
  H   H73       1.0  0.5497825133251525  0.9700443450961984  0.4100646962704158  1.0000
  H   H74       1.0  0.4502174872931899  0.029955654604997727  0.589935303768891  1.0000
  H   H75       1.0  0.48040960202028943  0.0986984566449618  0.3374850694658023  1.0000
  H   H76       1.0  0.5195903985980531  0.9013015430562341  0.6625149305735046  1.0000
  H   H77       1.0  0.016788512193823515  0.8283181858925  0.8998930948598752  1.0000
  H   H78       1.0  0.9832114884245191  0.17168181380869604  0.10010690517943166  1.0000
  H   H79       1.0  0.8724858411878277  0.7957696360503647  0.02277902165312361  1.0000
  H   H80       1.0  0.12751415907937472  0.20423036476064904  0.9772209783890753  1.0000
  H   H81       1.0  0.8579767116102253  0.9626296701885428  0.12167383716721443  1.0000
  H   H82       1.0  0.14202328785897095  0.03737032951838188  0.8783261628712808  1.0000
  B   B1        1.0  0.31821614215405625  0.396714215340015  0.359445697184282  1.0000
  B   B2        1.0  0.681783856964  0.6032857854767276  0.6405543028571051  1.0000
  B   B3        1.0  0.19418855582870392  0.3467582965735393  0.30657770687852753  1.0000
  B   B4        1.0  0.8058114432893524  0.6532417042432033  0.6934222931628596  1.0000
  C   C1        1.0  0.503569209713714  0.541447962326971  0.39174109950540886  1.0000
  C   C2        1.0  0.49643079055348843  0.45855203848404275  0.6082589005367899  1.0000
  C   C3        1.0  0.3591697162287903  0.6112113902445506  0.28241353591381685  1.0000
  C   C4        1.0  0.6408302843895521  0.38878860945664534  0.71758646412549  1.0000
  C   C5        1.0  0.9044404793047152  0.38600780260764656  0.279507768545208  1.0000
  C   C6        1.0  0.09555951981334113  0.613992198209096  0.7204922314961792  1.0000
  C   C7        1.0  0.963296468725739  0.5512124261624056  0.36082441692648093  1.0000
  C   C8        1.0  0.03670353039231733  0.44878757465433694  0.6391755831149062  1.0000
  C   C9        1.0  0.25289100736553877  0.2161161295624511  0.24864564322091415  1.0000
  C   C10       1.0  0.7471089921036574  0.7838838701444738  0.7513543568175811  1.0000
  C   C11       1.0  0.36126539677287256  0.09564624820835413  0.1388151866253978  1.0000
  C   C12       1.0  0.6387346038454701  0.9043537514928418  0.861184813413909  1.0000
  C   C13       1.0  0.31130261810203247  0.9855223182771671  0.19431229803806419  1.0000
  C   C14       1.0  0.68869738251631  0.014477681424028756  0.8056877020012427  1.0000
  C   C15       1.0  0.3544298587375901  0.36426029257694836  0.14865045771164764  1.0000
  C   C16       1.0  0.6455701407316061  0.6357397071299766  0.8513495423268477  1.0000
  C   C17       1.0  0.5117268032016482  0.37538793504107537  0.15048042308419213  1.0000
  C   C18       1.0  0.488273195916408  0.6246120657756673  0.8495195769571949  1.0000
  C   C19       1.0  0.5490154556599247  0.49778341038495444  0.11525444819058753  1.0000
  C   C20       1.0  0.4509845438092718  0.5022165893219704  0.8847455518479076  1.0000
  C   C21       1.0  0.4334577365361937  0.6094233079591823  0.07979428350155673  1.0000
  C   C22       1.0  0.5665422641909359  0.39057669178300947  0.9202057159887194  1.0000
  C   C23       1.0  0.2787230043028957  0.5951145926452831  0.07942730149730291  1.0000
  C   C24       1.0  0.7212769951663007  0.4048854070616418  0.9205726985411924  1.0000
  C   C25       1.0  0.23649342994797234  0.47218589436822056  0.11237494811062285  1.0000
  C   C26       1.0  0.7635065706703702  0.5278141053329755  0.887625051928684  1.0000
  C   C27       1.0  0.6328955882870011  0.2628398798291307  0.19290034199387318  1.0000
  C   C28       1.0  0.3671044111821952  0.7371601198777943  0.807099658044622  1.0000
  C   C29       1.0  0.47749018740017046  0.7398582603345677  0.04232426982673601  1.0000
  C   C30       1.0  0.522509812867032  0.2601417404764461  0.9576757302154626  1.0000
  C   C31       1.0  0.07023514070893672  0.45986721563401  0.10756630481890816  1.0000
  C   C32       1.0  0.9297648595582656  0.5401327851770038  0.8924336952232907  1.0000
  C   C33       1.0  0.20205661734970407  0.009456461945772278  0.32759806084742943  1.0000
  C   C34       1.0  0.7979433821194922  0.9905435377611527  0.6724019391910658  1.0000
  C   C35       1.0  0.05649953853169312  0.972066805605496  0.33927170313111293  1.0000
  C   C36       1.0  0.9435004620866494  0.027933194095699904  0.6607282969081939  1.0000
  C   C37       1.0  0.028669518503908607  0.8949837084507585  0.4045961560528175  1.0000
  C   C38       1.0  0.9713304806141478  0.1050162923659841  0.5954038439885696  1.0000
  C   C39       1.0  0.14026400880849493  0.8557646509784482  0.45720864712851866  1.0000
  C   C40       1.0  0.8597359906607015  0.14423534872847665  0.5427913529099765  1.0000
  C   C41       1.0  0.28310469698777735  0.8959947137260073  0.443738994626873  1.0000
  C   C42       1.0  0.7168953024814191  0.10400528598091754  0.5562610054116222  1.0000
  C   C43       1.0  0.3197635607728139  0.968340603595217  0.37836683615042277  1.0000
  C   C44       1.0  0.6802364398455285  0.03165939610597895  0.6216331638888841  1.0000
  C   C45       1.0  0.9339850568532199  0.007975315678278487  0.2840011645564751  1.0000
  C   C46       1.0  0.06601494261597649  0.9920246840286465  0.7159988354820201  1.0000
  C   C47       1.0  0.11192609600467122  0.7649229616449854  0.5246135779991453  1.0000
  C   C48       1.0  0.8880739034645252  0.23507703806193958  0.4753864220393499  1.0000
  C   C49       1.0  0.48452374170963236  0.9877825599528072  0.36065191330874014  1.0000
  C   C50       1.0  0.5154762574084238  0.012217440863935612  0.639348086732647  1.0000
  C   C51       1.0  0.008558178094045885  0.904330873612903  0.9437165051450687  1.0000
  C   C52       1.0  0.9914418221731566  0.09566912719811071  0.0562834948971301  1.0000
  C   C53       1.0  0.9281600006656855  0.885432134569163  0.01203967639349343  1.0000
  C   C54       1.0  0.07183999880351088  0.11456786513776186  0.987960323645002  1.0000
  C   C55       1.0  0.9196775632510844  0.9811995463212461  0.068548686893753  1.0000
  C   C56       1.0  0.08032243736725801  0.01880045337994989  0.9314513131455538  1.0000
  N   N1        1.0  0.3968597536289785  0.5049418979937104  0.34434275980842494  1.0000
  N   N2        1.0  0.6031402466382237  0.4950581028173034  0.6556572402337738  1.0000
  N   N3        1.0  0.030060548558628757  0.4220601462531311  0.31473840148675664  1.0000
  N   N4        1.0  0.9699394509105675  0.5779398534537937  0.6852615985517386  1.0000
  N   N5        1.0  0.3207638071803686  0.23318974669216375  0.18100003012582608  1.0000
  N   N6        1.0  0.6792361922888277  0.7668102530147611  0.8189999699126691  1.0000
  N   N7        1.0  0.2404067861106214  0.07813295980452672  0.2590551899674025  1.0000
  N   N8        1.0  0.7595932145077211  0.9218670398966691  0.7409448100719044  1.0000
  Br  Br1       1.0  0.7260902660608797  0.766630361459385  0.2007598435077557  1.0000
  Br  Br2       1.0  0.27390973455746287  0.23336963824181087  0.7992401565315511  1.0000
  Br  Br3       1.0  0.32657035953959873  0.30245703670092233  0.45995376935280496  1.0000
  Br  Br4       1.0  0.6734296399295976  0.6975429630060027  0.5400462306856902  1.0000
