data_image0
_chemical_formula_structural       H28C30O6
_chemical_formula_sum              "H28 C30 O6"
_cell_length_a       6.61480322931565
_cell_length_b       9.295718964121052
_cell_length_c       9.989380886284195
_cell_angle_alpha    91.40702042861466
_cell_angle_beta     96.43451804138667
_cell_angle_gamma    110.52434586228165

_space_group_name_H-M_alt    "P 1"
_space_group_IT_number       1

loop_
  _space_group_symop_operation_xyz
  'x, y, z'

loop_
  _atom_site_type_symbol
  _atom_site_label
  _atom_site_symmetry_multiplicity
  _atom_site_fract_x
  _atom_site_fract_y
  _atom_site_fract_z
  _atom_site_occupancy
  H   H1        1.0  0.6103643912156835  0.8316998492990456  0.8356402028877844  1.0000
  H   H2        1.0  0.38963560898283167  0.16830015079005645  0.1643597975210227  1.0000
  H   H3        1.0  0.5465507122474863  0.560113862778888  0.8932161754443967  1.0000
  H   H4        1.0  0.4534492879521881  0.43988613731392306  0.10678382396352333  1.0000
  H   H5        1.0  0.1627244067883814  0.39573460502089486  0.9109667663105006  1.0000
  H   H6        1.0  0.8372755934101338  0.6042653950682072  0.0890332340983064  1.0000
  H   H7        1.0  0.8665646116982486  0.46061215384270093  0.7632456383888806  1.0000
  H   H8        1.0  0.1334353885014256  0.53938784625011  0.2367543610190394  1.0000
  H   H9        1.0  0.0007676862187505607  0.6858389905689526  0.621076952070063  1.0000
  H   H10       1.0  0.9992323134006318  0.3141610083724737  0.3789230472652609  1.0000
  H   H11       1.0  0.33991473072854533  0.8961198622780459  0.719538831235965  1.0000
  H   H12       1.0  0.6600852694711289  0.1038801378147651  0.2804611681719552  1.0000
  H   H13       1.0  0.025954298554783328  0.8876711155117726  0.05615992747397334  1.0000
  H   H14       1.0  0.9740457016437317  0.11232888457732937  0.9438400729348336  1.0000
  H   H15       1.0  0.3307062531498651  0.8402706795547796  0.18924950591007716  1.0000
  H   H16       1.0  0.6692937470498092  0.1597293205380314  0.810750493497843  1.0000
  H   H17       1.0  0.6234856957499924  0.6560918786406528  0.6660007296468384  1.0000
  H   H18       1.0  0.37651430444852274  0.34390812144844923  0.3339992707619686  1.0000
  H   H19       1.0  0.4457511069898006  0.46107612194306286  0.6492542997825428  1.0000
  H   H20       1.0  0.5542488926284226  0.5389238769946542  0.3507457005536681  1.0000
  H   H21       1.0  0.36085291314720624  0.7288929933925903  0.5383206094667206  1.0000
  H   H22       1.0  0.6391470870524681  0.2711070067002207  0.4616793899411995  1.0000
  H   H23       1.0  0.19120961440985831  0.5331611063686594  0.5125040657116687  1.0000
  H   H24       1.0  0.8087903857886568  0.4668388937204427  0.4874959346971383  1.0000
  H   H25       1.0  0.39089446647795023  0.1646301061334774  0.5761248296292836  1.0000
  H   H26       1.0  0.6091055331414322  0.8353698928079488  0.4238751697060403  1.0000
  H   H27       1.0  0.9036857944568033  0.8014098396549568  0.3039453823736402  1.0000
  H   H28       1.0  0.0963142057417119  0.1985901604341452  0.6960546180351667  1.0000
  C   C1        1.0  0.4743691048900428  0.7876465733934277  0.015896358686496987  1.0000
  C   C2        1.0  0.5256308953084723  0.21235342669567428  0.98410364172231  1.0000
  C   C3        1.0  0.4514423461603883  0.7610345393926895  0.8645379722742357  1.0000
  C   C4        1.0  0.5485576540392859  0.23896546070012137  0.1354620271336843  1.0000
  C   C5        1.0  0.42407459112730866  0.5895051839881922  0.8280487217806597  1.0000
  C   C6        1.0  0.5759254090712064  0.41049481610090977  0.17195127862814735  1.0000
  C   C7        1.0  0.19505219475036753  0.48862971208603395  0.8430617533720316  1.0000
  C   C8        1.0  0.8049478054481476  0.5113702880030679  0.15693824703677542  1.0000
  C   C9        1.0  0.28492366628111226  0.6246739496850585  0.5904523809882498  1.0000
  C   C10       1.0  0.7150763339185621  0.37532605040775247  0.4095476184196703  1.0000
  C   C11       1.0  0.04083383949438643  0.5224401915641368  0.7653116139533316  1.0000
  C   C12       1.0  0.9591661607041287  0.47755980852496527  0.23468838645547535  1.0000
  C   C13       1.0  0.4580640429963897  0.579121922074289  0.6779154494918631  1.0000
  C   C14       1.0  0.5419359572021254  0.420878078014813  0.3220845509169439  1.0000
  C   C15       1.0  0.12898533314561714  0.6571774262258083  0.6810951374721899  1.0000
  C   C16       1.0  0.8710146670540572  0.3428225738670027  0.31890486193573014  1.0000
  C   C17       1.0  0.26689837271816025  0.7987727702060692  0.7810070531646444  1.0000
  C   C18       1.0  0.733101627480355  0.20122722988303282  0.21899294724416263  1.0000
  C   C19       1.0  0.11283693051778927  0.8445949007812779  0.8585366110382014  1.0000
  C   C20       1.0  0.8871630696818851  0.15540509931153318  0.14146338836971878  1.0000
  C   C21       1.0  0.1446432338082642  0.8559179441660862  0.006620167072338074  1.0000
  C   C22       1.0  0.8553567663902508  0.14408205592301565  0.993379833336469  1.0000
  C   C23       1.0  0.3105637284500369  0.8286509516415355  0.07907716953987576  1.0000
  C   C24       1.0  0.6894362717484781  0.17134904844756657  0.9209228308689312  1.0000
  C   C25       1.0  0.16918221398712613  0.9810227551303343  0.43170324463331616  1.0000
  C   C26       1.0  0.830817786211389  0.018977244958767712  0.5682967557754909  1.0000
  C   C27       1.0  0.21953457280657357  0.09796710980714314  0.5449979148572485  1.0000
  C   C28       1.0  0.7804654273931008  0.9020328902856679  0.4550020845506715  1.0000
  C   C29       1.0  0.938871727989514  0.8847839003002645  0.38994331827186207  1.0000
  C   C30       1.0  0.061128271628709284  0.11521609863745266  0.6100566820643488  1.0000
  O   O1        1.0  0.6308067363771321  0.7743439377550226  0.0886191248987921  1.0000
  O   O2        1.0  0.36919326382254214  0.2256560623377884  0.9113808745091279  1.0000
  O   O3        1.0  0.9571836651465008  0.8712190049195153  0.797576917228008  1.0000
  O   O4        1.0  0.042816333532315315  0.12878099517426084  0.20242308206753945  1.0000
  O   O5        1.0  0.31656251535904323  0.9620920750161694  0.3749974986299836  1.0000
  O   O6        1.0  0.6834374833197729  0.03790792507760671  0.625002500665564  1.0000
