data_image0
_chemical_formula_structural       H84C84N4F12Cl12Br4I12
_chemical_formula_sum              "H84 C84 N4 F12 Cl12 Br4 I12"
_cell_length_a       9.583822140063068
_cell_length_b       18.86170348561071
_cell_length_c       15.928267822134357
_cell_angle_alpha    90.0
_cell_angle_beta     98.12984459178797
_cell_angle_gamma    90.0

_space_group_name_H-M_alt    "P 1"
_space_group_IT_number       1

loop_
  _space_group_symop_operation_xyz
  'x, y, z'

loop_
  _atom_site_type_symbol
  _atom_site_label
  _atom_site_symmetry_multiplicity
  _atom_site_fract_x
  _atom_site_fract_y
  _atom_site_fract_z
  _atom_site_occupancy
  H   H1        1.0  0.9475018901980188  0.5742691840248324  0.04045056295193332  1.0000
  H   H2        1.0  0.5524981096333198  0.07426918364339047  0.4595494371087866  1.0000
  H   H3        1.0  0.05249810933837262  0.4257308162078766  0.9595494370533446  1.0000
  H   H4        1.0  0.44750188990307166  0.9257308160591438  0.5404505628964914  1.0000
  H   H5        1.0  0.8919165525070386  0.6579913622047991  0.000897804014423858  1.0000
  H   H6        1.0  0.6080834471716524  0.1579913618233572  0.4991021954121117  1.0000
  H   H7        1.0  0.10808344702935273  0.3420086380279099  0.999102195990854  1.0000
  H   H8        1.0  0.39191655236473905  0.842008637879177  0.5008978045931662  1.0000
  H   H9        1.0  0.7181791928123372  0.5640927336238157  0.9513379095066696  1.0000
  H   H10       1.0  0.7818208070137028  0.06409273377254865  0.5486620905001555  1.0000
  H   H11       1.0  0.28182080672405424  0.43590726607871855  0.04866209049860824  1.0000
  H   H12       1.0  0.21817919356559431  0.9359072664601605  0.4513379095029389  1.0000
  H   H13       1.0  0.6383618515720129  0.626637841540499  0.012027490467983269  1.0000
  H   H14       1.0  0.8616381482593258  0.12663784168923176  0.48797250959273664  1.0000
  H   H15       1.0  0.3616381490072842  0.3733621581620354  0.9879725095351111  1.0000
  H   H16       1.0  0.1383618512770656  0.8733621580133025  0.5120274904125413  1.0000
  H   H17       1.0  0.6938811430333741  0.5422160568795975  0.05548619954357904  1.0000
  H   H18       1.0  0.8061188567979644  0.0422160570283304  0.4445138005171409  1.0000
  H   H19       1.0  0.30611885650301723  0.4577839433531115  0.9445138004616987  1.0000
  H   H20       1.0  0.1938811437813326  0.9577839432043787  0.5554861994859535  1.0000
  H   H21       1.0  0.8903758157315144  0.6147200844740978  0.259291814368811  1.0000
  H   H22       1.0  0.6096241851427299  0.11472008462283063  0.24070818568972535  1.0000
  H   H23       1.0  0.10962418484778265  0.3852799157586113  0.7407081856342833  1.0000
  H   H24       1.0  0.3903758154365672  0.8852799156098784  0.759291814313369  1.0000
  H   H25       1.0  0.751967543833152  0.5795877068229737  0.18683273535943787  1.0000
  H   H26       1.0  0.7480324559981866  0.07958770644153167  0.31316726470128203  1.0000
  H   H27       1.0  0.2480324557032394  0.42041229340973546  0.8131672646458401  1.0000
  H   H28       1.0  0.2519675445811104  0.9204122932610025  0.6868327353018123  1.0000
  H   H29       1.0  0.9249516994529642  0.48775787335531434  0.24532911325059983  1.0000
  H   H30       1.0  0.5750483003783743  0.9877578737367563  0.25467088681012007  1.0000
  H   H31       1.0  0.07504830112633269  0.5122421263472199  0.7546708867524946  1.0000
  H   H32       1.0  0.42495169915801717  0.012242126495952792  0.7453291131951578  1.0000
  H   H33       1.0  0.06122090314004546  0.5290250707001249  0.19987224365412973  1.0000
  H   H34       1.0  0.43877909714960306  0.02902507031868305  0.3001277563474175  1.0000
  H   H35       1.0  0.9387790974392515  0.470974929532584  0.8001277563489646  1.0000
  H   H36       1.0  0.5612209023867883  0.9709749293838511  0.6998722436578604  1.0000
  H   H37       1.0  0.9131421619508882  0.491758399609879  0.1335824147671188  1.0000
  H   H38       1.0  0.586857838923356  0.9917583994611461  0.36641758529141755  1.0000
  H   H39       1.0  0.08685783862840879  0.5082416006228301  0.8664175852359756  1.0000
  H   H40       1.0  0.413142161655941  0.008241600771562907  0.6335824147116768  1.0000
  H   H41       1.0  0.05627351990895585  0.7088580488077317  0.09793859546866533  1.0000
  H   H42       1.0  0.443726479337787  0.20885804842628974  0.4020614045350654  1.0000
  H   H43       1.0  0.9437264796274355  0.29114195142497734  0.9020614045366125  1.0000
  H   H44       1.0  0.5562735201986043  0.7911419512762444  0.5979385954702124  1.0000
  H   H45       1.0  0.10792651620786314  0.6233801103367994  0.13246211874561162  1.0000
  H   H46       1.0  0.39207348408178533  0.12338011048553235  0.36753788125593556  1.0000
  H   H47       1.0  0.8920734843714337  0.37661988936573476  0.8675378812574827  1.0000
  H   H48       1.0  0.607926515454606  0.8766198897471768  0.6324621187493423  1.0000
  H   H49       1.0  0.2079823239042299  0.7153884499506596  0.23416375382361831  1.0000
  H   H50       1.0  0.29201767638541865  0.2153884500993925  0.26583624617792884  1.0000
  H   H51       1.0  0.7920176766750672  0.28461154975187464  0.7658362461794761  1.0000
  H   H52       1.0  0.7079823241938784  0.7846115496031417  0.7341637538251654  1.0000
  H   H53       1.0  0.10166808612120917  0.6573207589366664  0.2844135546538507  1.0000
  H   H54       1.0  0.3983319141684394  0.15732075908539936  0.21558644534769653  1.0000
  H   H55       1.0  0.8983319134151821  0.3426792407658678  0.7155864453514272  1.0000
  H   H56       1.0  0.6016680864108578  0.8426792411473097  0.7844135546553979  1.0000
  H   H57       1.0  0.0395143832408536  0.7438316571301848  0.2520959768985065  1.0000
  H   H58       1.0  0.4604856170487949  0.243831656748743  0.2479040231030407  1.0000
  H   H59       1.0  0.9604856173384434  0.2561683431025241  0.7479040231045878  1.0000
  H   H60       1.0  0.5395143835305021  0.7561683429537913  0.7520959769000537  1.0000
  H   H61       1.0  0.6872449398111384  0.6844887568002173  0.13456974357398918  1.0000
  H   H62       1.0  0.8127550600202001  0.18448875641877532  0.3654302564867308  1.0000
  H   H63       1.0  0.31275506076815857  0.3155112434324918  0.8654302564291052  1.0000
  H   H64       1.0  0.18724493951619126  0.8155112432837589  0.6345697435185472  1.0000
  H   H65       1.0  0.8186196811728834  0.7247701179497879  0.20801634671383104  1.0000
  H   H66       1.0  0.6813803186584552  0.22477011809852074  0.29198365334688886  1.0000
  H   H67       1.0  0.18138031836350793  0.2752298817527464  0.7919836532914468  1.0000
  H   H68       1.0  0.3186196808779362  0.7752298816040135  0.708016346658389  1.0000
  H   H69       1.0  0.7286615179495999  0.8087998107720257  0.0959053431550935  1.0000
  H   H70       1.0  0.7713384818817388  0.30879981092075853  0.4040946569056264  1.0000
  H   H71       1.0  0.27133848262969723  0.19120018946068337  0.9040946568480008  1.0000
  H   H72       1.0  0.2286615176546526  0.6912001893119505  0.5959053430996515  1.0000
  H   H73       1.0  0.7711618358439514  0.7527033038575156  0.014618910311484299  1.0000
  H   H74       1.0  0.7288381639873872  0.25270330400624846  0.4853810897492356  1.0000
  H   H75       1.0  0.22883816369244003  0.24729669637519344  0.9853810896937936  1.0000
  H   H76       1.0  0.2711618365919098  0.7472966962264606  0.5146189102538588  1.0000
  H   H77       1.0  0.9069329578640573  0.7924568367540551  0.08804158447114725  1.0000
  H   H78       1.0  0.5930670419672814  0.2924568363726132  0.41195841558957264  1.0000
  H   H79       1.0  0.09306704271523987  0.20754316347865392  0.911958415531947  1.0000
  H   H80       1.0  0.4069329575691099  0.7075431633299211  0.5880415844157053  1.0000
  H   H81       1.0  0.07738233177410468  0.6387312402186202  0.8334106461114481  1.0000
  H   H82       1.0  0.4226176674673395  0.13873123983717822  0.6665893538383877  1.0000
  H   H83       1.0  0.9226176677622867  0.3612687600140889  0.16658935389382973  1.0000
  H   H84       1.0  0.5773823320690519  0.8612687598653561  0.33341064616689015  1.0000
  C   C1        1.0  0.9841271913325447  0.36919207299130813  0.5370821358047719  1.0000
  C   C2        1.0  0.5158728084934953  0.8691920728425753  0.9629178642020532  1.0000
  C   C3        1.0  0.01587280924675243  0.630807927241401  0.4629178641983224  1.0000
  C   C4        1.0  0.4841271910428961  0.13080792739013383  0.037082135803224746  1.0000
  C   C5        1.0  0.9016744227640574  0.41902790996738515  0.5312677538455334  1.0000
  C   C6        1.0  0.598325576909335  0.9190279098186523  0.9687322455271072  1.0000
  C   C7        1.0  0.09832557766259208  0.580972089735149  0.46873224552337656  1.0000
  C   C8        1.0  0.40167442262705644  0.08097208988388195  0.03126775447817065  1.0000
  C   C9        1.0  0.8022640522950922  0.47474246887780874  0.5197180594761571  1.0000
  C   C10       1.0  0.6977359475309476  0.9747424687290759  0.9802819405306681  1.0000
  C   C11       1.0  0.19773594724129911  0.5252575313549003  0.4802819405291209  1.0000
  C   C12       1.0  0.3022640530483494  0.02525753097345836  0.019718059472426306  1.0000
  C   C13       1.0  0.751560579945762  0.5009625523595201  0.43855593979932517  1.0000
  C   C14       1.0  0.7484394207758346  0.0009625525082530559  0.061444059625026796  1.0000
  C   C15       1.0  0.24843942063353497  0.4990374473430141  0.5614440602037691  1.0000
  C   C16       1.0  0.25156057980346236  0.999037447724456  0.9385559403780674  1.0000
  C   C17       1.0  0.6465648372420477  0.5530690182866183  0.42248696670572744  1.0000
  C   C18       1.0  0.8534351625892908  0.05306901790517624  0.07751303335499246  1.0000
  C   C19       1.0  0.3534351622943436  0.4469309819460908  0.5775130332995504  1.0000
  C   C20       1.0  0.1465648369471005  0.9469309817973579  0.9224869666502854  1.0000
  C   C21       1.0  0.5951452783681265  0.5806813996601947  0.49398296223852817  1.0000
  C   C22       1.0  0.9048547213105644  0.08068139980892755  0.006017037188007381  1.0000
  C   C23       1.0  0.404854721168265  0.41931860004233956  0.5060170377667498  1.0000
  C   C24       1.0  0.09514527926873245  0.9193186004237814  0.9939829628150871  1.0000
  C   C25       1.0  0.6390379131170298  0.5578928498174983  0.5774482305383672  1.0000
  C   C26       1.0  0.8609620867090101  0.05789284943605635  0.9225517694684578  1.0000
  C   C27       1.0  0.36096208746226716  0.44210715041521076  0.42255176946472706  1.0000
  C   C28       1.0  0.13903791282738137  0.9421071502664778  0.07744823053682008  1.0000
  C   C29       1.0  0.7428175024867006  0.5046170420005319  0.5871598611809417  1.0000
  C   C30       1.0  0.7571824973393392  0.00461704214926483  0.9128401388258833  1.0000
  C   C31       1.0  0.25718249704969076  0.4953829582321771  0.41284013882433623  1.0000
  C   C32       1.0  0.2428175032399578  0.9953829580834442  0.08715986117721097  1.0000
  C   C33       1.0  0.5265215876189802  0.5836673987796785  0.2679717622055016  1.0000
  C   C34       1.0  0.9734784120597109  0.08366739892841143  0.23202823722103386  1.0000
  C   C35       1.0  0.4734784129603169  0.4163326009228557  0.7320282377975927  1.0000
  C   C36       1.0  0.02652158747668046  0.9163326013042976  0.767971762784244  1.0000
  C   C37       1.0  0.5872920421678359  0.5721106032778145  0.3393481383127391  1.0000
  C   C38       1.0  0.9127079587064083  0.07211060289637256  0.16065186174579726  1.0000
  C   C39       1.0  0.41270795841146124  0.4278893969548946  0.6606518616903553  1.0000
  C   C40       1.0  0.08729204187288861  0.9278893968061617  0.8393481382572971  1.0000
  C   C41       1.0  0.5140946164446278  0.5970762428002064  0.706594080255391  1.0000
  C   C42       1.0  0.9859053833814121  0.09707624241876446  0.793405919751434  1.0000
  C   C43       1.0  0.48590538309176357  0.40292375743250264  0.29340591974988683  1.0000
  C   C44       1.0  0.014094617197884947  0.9029237572837698  0.20659408025166034  1.0000
  C   C45       1.0  0.5745437485994124  0.582191936607281  0.6464137274879841  1.0000
  C   C46       1.0  0.9254562512266276  0.08219193675601377  0.8535862725188411  1.0000
  C   C47       1.0  0.425456250936979  0.41780806309525337  0.3535862725172938  1.0000
  C   C48       1.0  0.07454374830976386  0.9178080629465205  0.14641372748643688  1.0000
  C   C49       1.0  0.8671155257230687  0.6152424227670052  0.04288905301404796  1.0000
  C   C50       1.0  0.6328844751511755  0.11524242291573804  0.4571109470444884  1.0000
  C   C51       1.0  0.13288447485622834  0.3847575769355291  0.9571109469890464  1.0000
  C   C52       1.0  0.36711552542812154  0.8847575767867962  0.542889052958606  1.0000
  C   C53       1.0  0.7207942026419047  0.5859691723195457  0.015358172727253946  1.0000
  C   C54       1.0  0.7792057982323396  0.08596917246827866  0.48464182733128247  1.0000
  C   C55       1.0  0.2792057979373923  0.41403082791316326  0.9846418272758405  1.0000
  C   C56       1.0  0.2207942023469575  0.9140308277644303  0.5153581726718119  1.0000
  C   C57       1.0  0.8656896505917288  0.5895239297173148  0.19694025736972018  1.0000
  C   C58       1.0  0.6343103502825156  0.08952392986604767  0.3030597426888162  1.0000
  C   C59       1.0  0.13431034998756838  0.41047607051539425  0.8030597426333742  1.0000
  C   C60       1.0  0.36568965029678135  0.9104760703666614  0.6969402573142781  1.0000
  C   C61       1.0  0.9468960288394049  0.5211843849363592  0.19239666777126363  1.0000
  C   C62       1.0  0.5531039709919336  0.021184384554917227  0.30760333228945624  1.0000
  C   C63       1.0  0.053103970696986545  0.47881561529634986  0.8076033322340144  1.0000
  C   C64       1.0  0.44689602854445765  0.9788156151476171  0.6923966677158216  1.0000
  C   C65       1.0  0.04593595018871319  0.6693681400320884  0.14710854880558163  1.0000
  C   C66       1.0  0.45406405010093537  0.16936813965064645  0.35289145119596554  1.0000
  C   C67       1.0  0.954064050390584  0.3306318602006207  0.8528914511975128  1.0000
  C   C68       1.0  0.5459359494354561  0.8306318600518878  0.6471085488093123  1.0000
  C   C69       1.0  0.09896248786777812  0.6977391400538117  0.23470965413967462  1.0000
  C   C70       1.0  0.4010375124218704  0.19773913967236978  0.2652903458618726  1.0000
  C   C71       1.0  0.901037512711519  0.30226086017889736  0.7652903458634197  1.0000
  C   C72       1.0  0.5989624871145209  0.8022608600301645  0.7347096541434053  1.0000
  C   C73       1.0  0.7937998750401928  0.7069776576740752  0.1420147584642185  1.0000
  C   C74       1.0  0.7062001247911457  0.20697765729263326  0.3579852415965014  1.0000
  C   C75       1.0  0.20620012553910422  0.29302234255863385  0.857985241538876  1.0000
  C   C76       1.0  0.29379987474524566  0.793022342409901  0.6420147584087765  1.0000
  C   C77       1.0  0.8025475607806285  0.76780268765481  0.08112538558515883  1.0000
  C   C78       1.0  0.6974524390507101  0.267802687273368  0.41887461447556107  1.0000
  C   C79       1.0  0.1974524387557629  0.23219731257789913  0.9188746144201191  1.0000
  C   C80       1.0  0.30254756048568127  0.7321973124291662  0.5811253855297168  1.0000
  C   C81       1.0  0.9900825241601243  0.6677681249526962  0.7967310351575593  1.0000
  C   C82       1.0  0.5099174767088213  0.16776812510142916  0.7032689648470822  1.0000
  C   C83       1.0  0.009917476419172807  0.332231874749838  0.2032689648455351  1.0000
  C   C84       1.0  0.4900825238704757  0.832231874601105  0.2967310351560121  1.0000
  N   N1        1.0  0.8928261763970279  0.6453137442906791  0.13237202627824837  1.0000
  N   N2        1.0  0.6071738234343106  0.14531374390923713  0.36762797378247153  1.0000
  N   N3        1.0  0.10717382313936333  0.35468625594203  0.8676279737270295  1.0000
  N   N4        1.0  0.3928261771449864  0.854686255793297  0.6323720262206228  1.0000
  F   F1        1.0  0.7853601310112371  0.4791674928457485  0.665714722447485  1.0000
  F   F2        1.0  0.7146398688148028  0.9791674926970156  0.8342852775593401  1.0000
  F   F3        1.0  0.2146398685251543  0.5208325068567857  0.3342852775577929  1.0000
  F   F4        1.0  0.2853601317644942  0.020832507005518613  0.16571472244375426  1.0000
  F   F5        1.0  0.4926396800519826  0.6302818893886922  0.481290206641192  1.0000
  F   F6        1.0  0.007360320237665948  0.13028188953742506  0.018709793360355245  1.0000
  F   F7        1.0  0.5073603194844087  0.36971811031384205  0.518709793364086  1.0000
  F   F8        1.0  0.992639680341631  0.869718110695284  0.9812902066427391  1.0000
  F   F9        1.0  0.8043909887118909  0.472947809131099  0.37183558533455496  1.0000
  F   F10       1.0  0.6956090111194478  0.9729478089823661  0.1281644147261649  1.0000
  F   F11       1.0  0.1956090108245006  0.5270521911016101  0.6281644146707229  1.0000
  F   F12       1.0  0.3043909894598492  0.027052190720168078  0.8718355852769294  1.0000
  Cl  Cl1       1.0  0.82982109003721  0.6324417017317862  0.8221592737571671  1.0000
  Cl  Cl2       1.0  0.6701789097888299  0.132441701880519  0.6778407262496581  1.0000
  Cl  Cl3       1.0  0.170178910542087  0.3675582979707481  0.1778407262459273  1.0000
  Cl  Cl4       1.0  0.32982108974756147  0.8675582978220152  0.3221592737556198  1.0000
  Cl  Cl5       1.0  0.9988058063840299  0.6567937906271719  0.6870631381195978  1.0000
  Cl  Cl6       1.0  0.50119419344201  0.1567937907759048  0.8129368618872272  1.0000
  Cl  Cl7       1.0  0.001194194195267132  0.3432062090753623  0.31293686188349656  1.0000
  Cl  Cl8       1.0  0.4988058060943814  0.8432062094568042  0.18706313811805064  1.0000
  Cl  Cl9       1.0  0.008272605327549611  0.7577321036195499  0.8265801716593822  1.0000
  Cl  Cl10      1.0  0.4917273949568002  0.25773210376828276  0.6734198282882702  1.0000
  Cl  Cl11      1.0  0.9917273952517475  0.24226789608298435  0.17341982834371214  1.0000
  Cl  Cl12      1.0  0.5082726045795912  0.7422678959342515  0.32658017171700776  1.0000
  Br  Br1       1.0  0.24904447041353794  0.12603712129254838  0.5304231635578714  1.0000
  Br  Br2       1.0  0.2509555298708119  0.6260371211438156  0.9695768363897809  1.0000
  Br  Br3       1.0  0.750955530165759  0.8739628789401607  0.46957683644522286  1.0000
  Br  Br4       1.0  0.7490444696655795  0.37396287855871874  0.030423163615497007  1.0000
  I   I1        1.0  0.10151435227200781  0.28067570164268163  0.5390791631721357  1.0000
  I   I2        1.0  0.398485648012342  0.7806757014939488  0.9609208367755168  1.0000
  I   I3        1.0  0.8984856483072893  0.7193242980598527  0.4609208368309588  1.0000
  I   I4        1.0  0.6015143525669551  0.21932429820858548  0.039079163227577596  1.0000
  I   I5        1.0  0.4206608512226576  0.5985993008857031  0.15079518595179706  1.0000
  I   I6        1.0  0.07933914802408522  0.09859930103443593  0.34920481405193365  1.0000
  I   I7        1.0  0.5793391483137338  0.40140069881683116  0.8492048140534809  1.0000
  I   I8        1.0  0.9206608515123061  0.9014006986680984  0.6507951859533443  1.0000
  I   I9        1.0  0.4147326350974767  0.6108143349188574  0.8083796480559576  1.0000
  I   I10       1.0  0.08526736414396746  0.11081433453741543  0.6916203518938782  1.0000
  I   I11       1.0  0.5852673644389147  0.38918566531385174  0.19162035194932028  1.0000
  I   I12       1.0  0.9147326353924238  0.8891856651651189  0.3083796481113996  1.0000
