data_image0
_chemical_formula_structural       H24C56O4F12S4I12
_chemical_formula_sum              "H24 C56 O4 F12 S4 I12"
_cell_length_a       14.026590968221706
_cell_length_b       7.1836280896716564
_cell_length_c       18.57943734005272
_cell_angle_alpha    90.0
_cell_angle_beta     90.0
_cell_angle_gamma    90.0

_space_group_name_H-M_alt    "P 1"
_space_group_IT_number       1

loop_
  _space_group_symop_operation_xyz
  'x, y, z'

loop_
  _atom_site_type_symbol
  _atom_site_label
  _atom_site_symmetry_multiplicity
  _atom_site_fract_x
  _atom_site_fract_y
  _atom_site_fract_z
  _atom_site_occupancy
  H   H1        1.0  0.14381468059988242  0.5677745491674563  0.78431618101728  1.0000
  H   H2        1.0  0.35618531910704193  0.4322254508782509  0.28431618101869877  1.0000
  H   H3        1.0  0.6438146810197384  0.9322254502050774  0.7156838189784637  1.0000
  H   H4        1.0  0.8561853195268978  0.06777454984062982  0.21568381897988248  1.0000
  H   H5        1.0  0.8561853195268978  0.4322254508782509  0.21568381897988248  1.0000
  H   H6        1.0  0.6438146810197384  0.5677745491674563  0.7156838189784637  1.0000
  H   H7        1.0  0.35618531910704193  0.06777454984062982  0.28431618101869877  1.0000
  H   H8        1.0  0.14381468059988242  0.9322254502050774  0.78431618101728  1.0000
  H   H9        1.0  0.0946260044943959  0.4313868453818637  0.8563972772038128  1.0000
  H   H10       1.0  0.4053739952125284  0.5686131546638434  0.3563972772052316  1.0000
  H   H11       1.0  0.5946260049142518  0.06861315394496274  0.6436027227919309  1.0000
  H   H12       1.0  0.9053739949194527  0.9313868461007445  0.14360272279334965  1.0000
  H   H13       1.0  0.9053739949194527  0.5686131546638434  0.14360272279334965  1.0000
  H   H14       1.0  0.5946260049142518  0.4313868453818637  0.6436027227919309  1.0000
  H   H15       1.0  0.4053739952125284  0.9313868461007445  0.3563972772052316  1.0000
  H   H16       1.0  0.0946260044943959  0.06861315394496274  0.8563972772038128  1.0000
  H   H17       1.0  0.04075492550507261  0.4237290533423382  0.768143015786263  1.0000
  H   H18       1.0  0.45924507420185173  0.5762709467033691  0.26814301578768174  1.0000
  H   H19       1.0  0.540754925211997  0.07627094598448833  0.7318569842094808  1.0000
  H   H20       1.0  0.9592450746217077  0.923729054061219  0.23185698421089948  1.0000
  H   H21       1.0  0.9592450746217077  0.5762709467033691  0.23185698421089948  1.0000
  H   H22       1.0  0.540754925211997  0.4237290533423382  0.7318569842094808  1.0000
  H   H23       1.0  0.45924507420185173  0.923729054061219  0.26814301578768174  1.0000
  H   H24       1.0  0.04075492550507261  0.07627094598448833  0.768143015786263  1.0000
  C   C1        1.0  0.21686443177045525  0.750000000382294  0.5506974410868228  1.0000
  C   C2        1.0  0.2831355679364691  0.24999999966341324  0.05069744108824166  1.0000
  C   C3        1.0  0.7168644321903112  0.750000000382294  0.9493025589089209  1.0000
  C   C4        1.0  0.783135568356325  0.24999999966341324  0.4493025589103396  1.0000
  C   C5        1.0  0.22402235561862813  0.750000000382294  0.625976241752378  1.0000
  C   C6        1.0  0.27597764480122783  0.24999999966341324  0.12597624175379676  1.0000
  C   C7        1.0  0.7240223553255524  0.750000000382294  0.8740237582433658  1.0000
  C   C8        1.0  0.7759776445081521  0.24999999966341324  0.37402375824478445  1.0000
  C   C9        1.0  0.31137813242683604  0.750000000382294  0.663104112600917  1.0000
  C   C10       1.0  0.18862186799301994  0.24999999966341324  0.16310411260233573  1.0000
  C   C11       1.0  0.8113781321337603  0.750000000382294  0.8368958873948267  1.0000
  C   C12       1.0  0.6886218676999443  0.24999999966341324  0.3368958873962455  1.0000
  C   C13       1.0  0.39421761085979934  0.750000000382294  0.620542124553234  1.0000
  C   C14       1.0  0.10578238956005662  0.24999999966341324  0.1205421245546527  1.0000
  C   C15       1.0  0.8942176105667237  0.750000000382294  0.8794578754425098  1.0000
  C   C16       1.0  0.6057823892669809  0.24999999966341324  0.37945787544392856  1.0000
  C   C17       1.0  0.3939039195281016  0.750000000382294  0.5450748074145535  1.0000
  C   C18       1.0  0.10609608017882267  0.24999999966341324  0.04507480741597225  1.0000
  C   C19       1.0  0.8939039199479576  0.750000000382294  0.9549251925811902  1.0000
  C   C20       1.0  0.6060960805986786  0.24999999966341324  0.454925192582609  1.0000
  C   C21       1.0  0.3034576662029546  0.750000000382294  0.5128397962547214  1.0000
  C   C22       1.0  0.19654233421690134  0.24999999966341324  0.01283979625614018  1.0000
  C   C23       1.0  0.8034576659098789  0.750000000382294  0.9871602037410223  1.0000
  C   C24       1.0  0.6965423339238256  0.24999999966341324  0.48716020374244107  1.0000
  C   C25       1.0  0.12980010567962136  0.750000000382294  0.5129557766238015  1.0000
  C   C26       1.0  0.37019989474023457  0.24999999966341324  0.012955776625220286  1.0000
  C   C27       1.0  0.6298001053865456  0.750000000382294  0.9870442233719422  1.0000
  C   C28       1.0  0.8701998944471588  0.24999999966341324  0.48704422337336095  1.0000
  C   C29       1.0  0.06016176788157852  0.750000000382294  0.47363901279343207  1.0000
  C   C30       1.0  0.43983823253827736  0.24999999966341324  0.9736390127920133  1.0000
  C   C31       1.0  0.5601617675885029  0.750000000382294  0.026360987205149143  1.0000
  C   C32       1.0  0.9398382322452017  0.24999999966341324  0.5263609872037304  1.0000
  C   C33       1.0  0.31634391136469797  0.750000000382294  0.7389927191390954  1.0000
  C   C34       1.0  0.18365608834222638  0.24999999966341324  0.2389927191405141  1.0000
  C   C35       1.0  0.8163439110716223  0.750000000382294  0.7610072808566484  1.0000
  C   C36       1.0  0.6836560887620823  0.24999999966341324  0.2610072808580671  1.0000
  C   C37       1.0  0.322248899981508  0.750000000382294  0.8046197608887106  1.0000
  C   C38       1.0  0.1777510997254163  0.24999999966341324  0.3046197608901293  1.0000
  C   C39       1.0  0.8222489004013639  0.750000000382294  0.6953802391070331  1.0000
  C   C40       1.0  0.6777511001452723  0.24999999966341324  0.19538023910845193  1.0000
  C   C41       1.0  0.47751251000150596  0.750000000382294  0.5028935015086677  1.0000
  C   C42       1.0  0.022487490418349982  0.24999999966341324  0.0028935015100864975  1.0000
  C   C43       1.0  0.9775125097084303  0.750000000382294  0.997106498487076  1.0000
  C   C44       1.0  0.5224874901252743  0.24999999966341324  0.4971064984884947  1.0000
  C   C45       1.0  0.5462469432065707  0.750000000382294  0.4625750130480331  1.0000
  C   C46       1.0  0.9537530573400655  0.24999999966341324  0.9625750130466143  1.0000
  C   C47       1.0  0.04624694278671482  0.750000000382294  0.03742498695054815  1.0000
  C   C48       1.0  0.4537530569202095  0.24999999966341324  0.5374249869491293  1.0000
  C   C49       1.0  0.10761823192962025  0.437803481853659  0.7982417313590142  1.0000
  C   C50       1.0  0.39238176777730405  0.5621965181920483  0.29824173136043297  1.0000
  C   C51       1.0  0.6076182323494762  0.06219651886522175  0.7017582686367295  1.0000
  C   C52       1.0  0.89238176819716  0.9378034811804854  0.20175826863814827  1.0000
  C   C53       1.0  0.89238176819716  0.5621965181920483  0.20175826863814827  1.0000
  C   C54       1.0  0.6076182323494762  0.437803481853659  0.7017582686367295  1.0000
  C   C55       1.0  0.39238176777730405  0.9378034811804854  0.29824173136043297  1.0000
  C   C56       1.0  0.10761823192962025  0.06219651886522175  0.7982417313590142  1.0000
  O   O1        1.0  0.19176015512919786  0.24999999966341324  0.6924090183434746  1.0000
  O   O2        1.0  0.30823984457772646  0.750000000382294  0.19240901834489335  1.0000
  O   O3        1.0  0.6917601555490539  0.24999999966341324  0.8075909816522691  1.0000
  O   O4        1.0  0.8082398449975823  0.750000000382294  0.3075909816536879  1.0000
  F   F1        1.0  0.1425717456601313  0.750000000382294  0.6647078086361983  1.0000
  F   F2        1.0  0.3574282547597246  0.24999999966341324  0.16470780863761703  1.0000
  F   F3        1.0  0.6425717453670557  0.750000000382294  0.8352921913595454  1.0000
  F   F4        1.0  0.8574282544666489  0.24999999966341324  0.3352921913609642  1.0000
  F   F5        1.0  0.47942240457679464  0.750000000382294  0.6544743717177335  1.0000
  F   F6        1.0  0.020577595130129685  0.24999999966341324  0.15447437171915218  1.0000
  F   F7        1.0  0.9794224049966506  0.750000000382294  0.8455256282780103  1.0000
  F   F8        1.0  0.520577594837054  0.24999999966341324  0.34552562827942906  1.0000
  F   F9        1.0  0.2991021488760139  0.750000000382294  0.44017028450963813  1.0000
  F   F10       1.0  0.20089785154384204  0.24999999966341324  0.9401702845082193  1.0000
  F   F11       1.0  0.7991021485829383  0.750000000382294  0.05982971548894309  1.0000
  F   F12       1.0  0.7008978512507664  0.24999999966341324  0.5598297154875244  1.0000
  S   S1        1.0  0.18640537005204222  0.24999999966341324  0.7747361250262251  1.0000
  S   S2        1.0  0.3135946296548821  0.750000000382294  0.27473612502764394  1.0000
  S   S3        1.0  0.6864053697589665  0.24999999966341324  0.7252638749695185  1.0000
  S   S4        1.0  0.8135946300747381  0.750000000382294  0.2252638749709373  1.0000
  I   I1        1.0  0.9521432756011414  0.750000000382294  0.40352615974207573  1.0000
  I   I2        1.0  0.5478567242325632  0.24999999966341324  0.903526159740657  1.0000
  I   I3        1.0  0.45214327589421704  0.750000000382294  0.09647384025650553  1.0000
  I   I4        1.0  0.047856723812707246  0.24999999966341324  0.5964738402550868  1.0000
  I   I5        1.0  0.3337076414792917  0.750000000382294  0.9110277195268375  1.0000
  I   I6        1.0  0.16629235822763264  0.24999999966341324  0.41102771952825623  1.0000
  I   I7        1.0  0.8337076418991477  0.750000000382294  0.5889722804689063  1.0000
  I   I8        1.0  0.6662923586474885  0.24999999966341324  0.08897228047032502  1.0000
  I   I9        1.0  0.6567405666045367  0.750000000382294  0.39444812487411984  1.0000
  I   I10       1.0  0.843259433229168  0.24999999966341324  0.8944481248727011  1.0000
  I   I11       1.0  0.1567405668976124  0.750000000382294  0.1055518751244614  1.0000
  I   I12       1.0  0.3432594328093119  0.24999999966341324  0.6055518751230426  1.0000
