data_image0
_chemical_formula_structural       H108C96F12S4I16
_chemical_formula_sum              "H108 C96 F12 S4 I16"
_cell_length_a       8.506008536389695
_cell_length_b       26.085463187995664
_cell_length_c       13.478900240280337
_cell_angle_alpha    90.0
_cell_angle_beta     90.33462899171066
_cell_angle_gamma    90.0

_space_group_name_H-M_alt    "P 1"
_space_group_IT_number       1

loop_
  _space_group_symop_operation_xyz
  'x, y, z'

loop_
  _atom_site_type_symbol
  _atom_site_label
  _atom_site_symmetry_multiplicity
  _atom_site_fract_x
  _atom_site_fract_y
  _atom_site_fract_z
  _atom_site_occupancy
  H   H1        1.0  0.2792490030202773  0.251563608539635  0.8329008539925681  1.0000
  H   H2        1.0  0.22075099680228635  0.7515636087697314  0.6670991464408315  1.0000
  H   H3        1.0  0.7207509970602131  0.7484363911538471  0.16709914618754215  1.0000
  H   H4        1.0  0.779249003278204  0.24843639130710604  0.33290085373927886  1.0000
  H   H5        1.0  0.4668028652500716  0.24024698525897772  0.88971776114779  1.0000
  H   H6        1.0  0.033197134572492036  0.7402469851057187  0.6102822392856094  1.0000
  H   H7        1.0  0.5331971348304188  0.7597530148178596  0.11028223903232018  1.0000
  H   H8        1.0  0.9668028655079982  0.2597530149711186  0.3897177608945008  1.0000
  H   H9        1.0  0.6011838543068171  0.2579634097928029  0.7280384898411884  1.0000
  H   H10       1.0  0.8988161458108075  0.7579634096395439  0.7719615100580207  1.0000
  H   H11       1.0  0.39881614577367325  0.7420365902840343  0.27196151033892196  1.0000
  H   H12       1.0  0.10118385426968267  0.24203659005393813  0.22803849012208957  1.0000
  H   H13       1.0  0.41856924283469643  0.27142787915908323  0.6704942987019648  1.0000
  H   H14       1.0  0.08143075698164559  0.7714278793891796  0.8295057009895218  1.0000
  H   H15       1.0  0.5814307572457938  0.7285721209177541  0.32950570147814534  1.0000
  H   H16       1.0  0.9185692430988447  0.2285721206876578  0.1704942991905884  1.0000
  H   H17       1.0  0.37374295609106045  0.34282148434747156  0.7933426443290106  1.0000
  H   H18       1.0  0.12625704372528157  0.8428214841942125  0.7066573553624761  1.0000
  H   H19       1.0  0.6262570439894299  0.6571785157293658  0.20665735585109968  1.0000
  H   H20       1.0  0.8737429563552088  0.15717851588262477  0.29334264481763406  1.0000
  H   H21       1.0  0.5587988539174288  0.3301494954463077  0.847522187246113  1.0000
  H   H22       1.0  0.9412011462001959  0.8301494952930486  0.6524778126530961  1.0000
  H   H23       1.0  0.4412011461630616  0.6698505046305296  0.15247781293399737  1.0000
  H   H24       1.0  0.058798853874072805  0.16985050440043337  0.3475221867851013  1.0000
  H   H25       1.0  0.5786584707804797  0.4029164966040068  0.7271776220172561  1.0000
  H   H26       1.0  0.9213415293371451  0.902916496450748  0.7728223778819527  1.0000
  H   H27       1.0  0.4213415293000106  0.5970835034728305  0.27282237816285404  1.0000
  H   H28       1.0  0.07865847074334527  0.09708350362608946  0.22717762229815752  1.0000
  H   H29       1.0  0.5040027662048747  0.3632886719972463  0.6303490884094776  1.0000
  H   H30       1.0  0.99599723391275  0.8632886718439874  0.8696509114897313  1.0000
  H   H31       1.0  0.49599723387561556  0.6367113280795911  0.36965091177063264  1.0000
  H   H32       1.0  0.004002766167740356  0.13671132823284998  0.13034908869037887  1.0000
  H   H33       1.0  0.690924367109352  0.35016266240591315  0.6845356959871192  1.0000
  H   H34       1.0  0.8090756330082726  0.8501626622526542  0.8154643039120898  1.0000
  H   H35       1.0  0.30907563296491664  0.6498373376709242  0.3154643034510782  1.0000
  H   H36       1.0  0.19092436707221774  0.1498373374408279  0.1845356962680205  1.0000
  H   H37       1.0  0.346829126705898  0.1614593426862442  0.9546405911776441  1.0000
  H   H38       1.0  0.15317087428608722  0.6614593429163406  0.5453594085142494  1.0000
  H   H39       1.0  0.6531708733683709  0.8385406570072379  0.04535940826055324  1.0000
  H   H40       1.0  0.8468291257944031  0.3385406571604968  0.45464059166586085  1.0000
  H   H41       1.0  0.1692051803759016  0.1597983524370874  0.882772199155207  1.0000
  H   H42       1.0  0.3307948194404404  0.6597983522838284  0.6172278005362797  1.0000
  H   H43       1.0  0.8307948197045887  0.84020164763975  0.11722780102490318  1.0000
  H   H44       1.0  0.6692051806338284  0.34020164779300893  0.38277219890191777  1.0000
  H   H45       1.0  0.424236848766544  0.07539189186815091  0.8918824147924038  1.0000
  H   H46       1.0  0.07576315223166277  0.5753918917148919  0.6081175856414025  1.0000
  H   H47       1.0  0.5757631513139463  0.9246081082086864  0.10811758538770645  1.0000
  H   H48       1.0  0.9242368478488275  0.4246081083619454  0.39188241453870765  1.0000
  H   H49       1.0  0.2531866183648715  0.0717953596032696  0.8168174095714661  1.0000
  H   H50       1.0  0.24681338145147058  0.5717953598333659  0.6831825901200207  1.0000
  H   H51       1.0  0.7468133817093973  0.9282046400902124  0.18318258986673128  1.0000
  H   H52       1.0  0.7531866186290197  0.42820464024347143  0.3168174100600896  1.0000
  H   H53       1.0  0.2545037053445643  0.08022500942068946  0.04387904330427965  1.0000
  H   H54       1.0  0.24549629469879164  0.5802250092674305  0.45612095715673184  1.0000
  H   H55       1.0  0.745496294735926  0.919774990656148  0.9561209568758305  1.0000
  H   H56       1.0  0.7545037053816986  0.4197749904260516  0.5438790430233783  1.0000
  H   H57       1.0  0.08456885289143572  0.0768894424279576  0.9688197131272032  1.0000
  H   H58       1.0  0.41543114693112787  0.5768894426580539  0.5311802873061964  1.0000
  H   H59       1.0  0.9154311460134114  0.9231105572655244  0.031180287052500255  1.0000
  H   H60       1.0  0.5845688531493625  0.4231105574187834  0.46881971287391383  1.0000
  H   H61       1.0  0.15143450482248275  0.9901953031789229  0.0385168205517413  1.0000
  H   H62       1.0  0.3485654952146517  0.49019530294882674  0.46148317916735737  1.0000
  H   H63       1.0  0.848565495251786  0.009804696897914349  0.961483178886456  1.0000
  H   H64       1.0  0.6514345048658386  0.5098046971280107  0.5385168210127528  1.0000
  H   H65       1.0  0.33979526108512353  0.9930930680932446  0.9831958459373106  1.0000
  H   H66       1.0  0.16020473873121846  0.49309306824650356  0.5168041537541761  1.0000
  H   H67       1.0  0.6602047389891452  0.006906931600237528  0.016804153500886786  1.0000
  H   H68       1.0  0.8397952613492718  0.5069069318303339  0.4831958464259341  1.0000
  H   H69       1.0  0.16954327389615634  0.9892920564230501  0.9072357420553536  1.0000
  H   H70       1.0  0.3304567259201857  0.48929205657630903  0.592764257636133  1.0000
  H   H71       1.0  0.830456726184334  0.010707943270432008  0.09276425812475661  1.0000
  H   H72       1.0  0.6695432741540831  0.5107079435005284  0.4072357418020644  1.0000
  H   H73       1.0  0.34019116493176366  0.17529758229880046  0.617215504776255  1.0000
  H   H74       1.0  0.15980883489079994  0.6752975821455415  0.8827844956571446  1.0000
  H   H75       1.0  0.6598088351487266  0.8247024177780369  0.38278449540385534  1.0000
  H   H76       1.0  0.8401911651896904  0.32470241793129584  0.11721550452296563  1.0000
  H   H77       1.0  0.2316859065123422  0.12789091632979882  0.6805887100080827  1.0000
  H   H78       1.0  0.26831409330399986  0.6278909165598952  0.819411289683404  1.0000
  H   H79       1.0  0.7683140923925049  0.8721090833636832  0.3194112901716208  1.0000
  H   H80       1.0  0.7316859067702689  0.3721090835169422  0.18058870975479333  1.0000
  H   H81       1.0  0.1629240820148238  0.24445446546391073  0.6851347849306281  1.0000
  H   H82       1.0  0.33707591898338296  0.7444544656940071  0.8148652155031784  1.0000
  H   H83       1.0  0.8370759180656664  0.7555455346129267  0.3148652152494822  1.0000
  H   H84       1.0  0.6629240810971074  0.2555455343828303  0.18513478467693184  1.0000
  H   H85       1.0  0.05551060291490833  0.19784780100723043  0.7518642584952033  1.0000
  H   H86       1.0  0.4444893969014337  0.6978478008539715  0.7481357411962833  1.0000
  H   H87       1.0  0.9444893971593603  0.802152199069607  0.24813574094299404  1.0000
  H   H88       1.0  0.5555106031790565  0.3021521992228659  0.2518642589838269  1.0000
  H   H89       1.0  0.0867142974708859  0.20416613198000944  0.5259577042127938  1.0000
  H   H90       1.0  0.4132857035273209  0.7041661322101057  0.9740422962210127  1.0000
  H   H91       1.0  0.9132857026096045  0.7958338680968279  0.4740422959673165  1.0000
  H   H92       1.0  0.5867142965531694  0.2958338678667316  0.025957703959097574  1.0000
  H   H93       1.0  0.98408899447902  0.15529921323629262  0.5886895387684117  1.0000
  H   H94       1.0  0.5159110056386048  0.655299213466389  0.9113104611307973  1.0000
  H   H95       1.0  0.0159110055952488  0.8447007868405447  0.41131046066978577  1.0000
  H   H96       1.0  0.4840889944418855  0.34470078661044845  0.08868953904931294  1.0000
  H   H97       1.0  0.7956198630807644  0.2236796854228422  0.5343672855532888  1.0000
  H   H98       1.0  0.7043801370368604  0.7236796852695833  0.9656327143459201  1.0000
  H   H99       1.0  0.20438013699972596  0.7763203146539952  0.46563271462682143  1.0000
  H   H100      1.0  0.29561986304362997  0.2763203148072541  0.0343672858341901  1.0000
  H   H101      1.0  0.9057673289210527  0.2706908322505641  0.6011755001095119  1.0000
  H   H102      1.0  0.5942326711965721  0.7706908324806604  0.8988244997896969  1.0000
  H   H103      1.0  0.09423267115321611  0.7293091674429178  0.39882449932868547  1.0000
  H   H104      1.0  0.4057673288839182  0.2293091675961769  0.1011755003904132  1.0000
  H   H105      1.0  0.8053789857151297  0.22114503807832325  0.6653409339701611  1.0000
  H   H106      1.0  0.6946210144024951  0.7211450379250643  0.8346590659290478  1.0000
  H   H107      1.0  0.1946210143653607  0.7788549619985141  0.33465906620994906  1.0000
  H   H108      1.0  0.30537898567799515  0.2788549621517731  0.16534093425106244  1.0000
  C   C1        1.0  0.5647360112400096  0.15823640892447421  0.4608615360297364  1.0000
  C   C2        1.0  0.9352639890984074  0.6582364087712153  0.03913846389708452  1.0000
  C   C3        1.0  0.43526398884048073  0.8417635911523631  0.5391384641503738  1.0000
  C   C4        1.0  0.06473601098208288  0.3417635913056221  0.9608615362830257  1.0000
  C   C5        1.0  0.6189310686981359  0.11614281556611261  0.4810442205069457  1.0000
  C   C6        1.0  0.8810689316402812  0.6161428154128537  0.018955779419875283  1.0000
  C   C7        1.0  0.38106893137613285  0.8838571845107247  0.5189557789312518  1.0000
  C   C8        1.0  0.11893106844020915  0.38385718466398366  0.9810442207602349  1.0000
  C   C9        1.0  0.6729058951821103  0.065943266470024  0.4998795590408214  1.0000
  C   C10       1.0  0.8270941039806636  0.5659432667001203  0.00012044088559274125  1.0000
  C   C11       1.0  0.32709410489215845  0.9340567332234581  0.5001204403973761  1.0000
  C   C12       1.0  0.17290589609982673  0.434056733376717  0.9998795592945174  1.0000
  C   C13       1.0  0.7757304743816942  0.04059014334417714  0.43519093820912647  1.0000
  C   C14       1.0  0.7242695259567227  0.5405901435742735  0.06480906171769447  1.0000
  C   C15       1.0  0.22426952569257447  0.959409856349305  0.5648090612290709  1.0000
  C   C16       1.0  0.27573047412376755  0.45940985650256394  0.9351909384624157  1.0000
  C   C17       1.0  0.8230894091831183  0.9894481284073066  0.44736046602034396  1.0000
  C   C18       1.0  0.6769105911615203  0.48944812856056547  0.05263953464838982  1.0000
  C   C19       1.0  0.1769105908973719  0.010551871669530798  0.5526395341597663  1.0000
  C   C20       1.0  0.32308940891897014  0.5105518715162718  0.9473604655317205  1.0000
  C   C21       1.0  0.7640800822514506  0.9636817222232941  0.5306927528319391  1.0000
  C   C22       1.0  0.7359199178723956  0.4636817223765531  0.9693072478091826  1.0000
  C   C23       1.0  0.2359199178290398  0.03631827785354323  0.46930724734817114  1.0000
  C   C24       1.0  0.2640800822080946  0.5363182777002843  0.030692752370927553  1.0000
  C   C25       1.0  0.6613329552111068  0.9860364684586745  0.5995617800230949  1.0000
  C   C26       1.0  0.8386670437308749  0.48603646861193345  0.9004382198757073  1.0000
  C   C27       1.0  0.3386670448693836  0.01396353161816283  0.4004382201570154  1.0000
  C   C28       1.0  0.16133295517397234  0.5139635314649039  0.09956178030399615  1.0000
  C   C29       1.0  0.6187593026678181  0.03719956486900935  0.5809905416938729  1.0000
  C   C30       1.0  0.8812406974498065  0.5371995650991056  0.9190094582053361  1.0000
  C   C31       1.0  0.3812406974126721  0.9628004348244728  0.41900945848623733  1.0000
  C   C32       1.0  0.11875930263068382  0.46280043497773166  0.08099054197477415  1.0000
  C   C33       1.0  0.009711478355114243  0.9447719636943752  0.31844563100919776  1.0000
  C   C34       1.0  0.4902885216820202  0.44477196384763423  0.18155436870990094  1.0000
  C   C35       1.0  0.9902885217253761  0.05522803599910681  0.6815543691709125  1.0000
  C   C36       1.0  0.5097114783984702  0.5552280362292031  0.8184456314702093  1.0000
  C   C37       1.0  0.9227605439882504  0.9651781418850298  0.3785017812211807  1.0000
  C   C38       1.0  0.5772394563501667  0.4651781416549335  0.12149821870564025  1.0000
  C   C39       1.0  0.07723945608601836  0.03482185819180751  0.6214982182170168  1.0000
  C   C40       1.0  0.4227605437303237  0.5348218584219038  0.87850178147447  1.0000
  C   C41       1.0  0.5411307492929218  0.9318172744268483  0.7449922531084642  1.0000
  C   C42       1.0  0.958869250824703  0.43181727458010716  0.7550077467907447  1.0000
  C   C43       1.0  0.45886925078756846  0.06818272564998916  0.25500774707164603  1.0000
  C   C44       1.0  0.041130749249565876  0.5681827254967302  0.24499225264745267  1.0000
  C   C45       1.0  0.5994916637797731  0.95794242716378  0.6797506432500092  1.0000
  C   C46       1.0  0.9005083363378515  0.45794242693368375  0.8202493566491998  1.0000
  C   C47       1.0  0.4005083363007172  0.04205757291305731  0.3202493569301011  1.0000
  C   C48       1.0  0.09949166374263878  0.5420575731431536  0.1797506435309105  1.0000
  C   C49       1.0  0.40129284127335707  0.23992526852581034  0.81916728755848  1.0000
  C   C50       1.0  0.09870715854298497  0.7399252683725515  0.6808327121330066  1.0000
  C   C51       1.0  0.5987071588071332  0.760074731551027  0.18083271262163017  1.0000
  C   C52       1.0  0.9012928403556406  0.26007473170428597  0.3191672873047839  1.0000
  C   C53       1.0  0.48235005638958217  0.2729562764013583  0.7417777536407719  1.0000
  C   C54       1.0  0.017649943426759792  0.7729562762480993  0.7582222460507146  1.0000
  C   C55       1.0  0.5176499436846865  0.7270437236754792  0.2582222457974254  1.0000
  C   C56       1.0  0.9823500566537307  0.22704372382873805  0.24177775412939553  1.0000
  C   C57       1.0  0.4926981729740104  0.3286599803964894  0.7770402339227511  1.0000
  C   C58       1.0  0.0073018268423315925  0.8286599802432305  0.7229597657687356  1.0000
  C   C59       1.0  0.5073018271064799  0.671340019680348  0.2229597662573591  1.0000
  C   C60       1.0  0.9926981732319371  0.17134001945025165  0.2770402336694618  1.0000
  C   C61       1.0  0.5707405087390295  0.36323986473663444  0.7004847713609709  1.0000
  C   C62       1.0  0.9292594913785952  0.8632398645833754  0.7995152285382379  1.0000
  C   C63       1.0  0.42925949134146085  0.636760135340203  0.2995152288191392  1.0000
  C   C64       1.0  0.07074050870189508  0.13676013549346192  0.20048477164187228  1.0000
  C   C65       1.0  0.2905269828081429  0.14545599488323838  0.8878522731849402  1.0000
  C   C66       1.0  0.2094730181838423  0.6454559947299794  0.6121477265069533  1.0000
  C   C67       1.0  0.7094730172723475  0.8545440051935991  0.11214772699517005  1.0000
  C   C68       1.0  0.7905269818966479  0.3545440053468579  0.3878522736731569  1.0000
  C   C69       1.0  0.300037634733435  0.08717180345283038  0.8871257113156896  1.0000
  C   C70       1.0  0.1999623650891286  0.5871718032995714  0.6128742891177099  1.0000
  C   C71       1.0  0.6999623653470552  0.912828196624007  0.11287428886442062  1.0000
  C   C72       1.0  0.8000376349913617  0.41282819677726595  0.38712571106240024  1.0000
  C   C73       1.0  0.20805335917395906  0.06444137287826945  0.973929853671326  1.0000
  C   C74       1.0  0.29194664064238296  0.5644413731083658  0.5260701460201607  1.0000
  C   C75       1.0  0.7919466409065312  0.9355586268152126  0.026070146508784253  1.0000
  C   C76       1.0  0.7080533594318859  0.4355586269684716  0.4739298534180367  1.0000
  C   C77       1.0  0.21733689517147856  0.006116932593837541  0.975885615006555  1.0000
  C   C78       1.0  0.28266310582050663  0.5061169328239339  0.5241143846853384  1.0000
  C   C79       1.0  0.7826631049090118  0.9938830674829997  0.024114385173555155  1.0000
  C   C80       1.0  0.717336894253762  0.49388306725290354  0.47588561475285895  1.0000
  C   C81       1.0  0.265934004693392  0.1685650198468974  0.6823038590652996  1.0000
  C   C82       1.0  0.23406599629859312  0.6685650196936385  0.8176961406265939  1.0000
  C   C83       1.0  0.7340659953808767  0.8314349802299399  0.31769614037289773  1.0000
  C   C84       1.0  0.7659340037818971  0.33143498038319896  0.18230385955351644  1.0000
  C   C85       1.0  0.1246955189753884  0.2041739689119637  0.6842268275125853  1.0000
  C   C86       1.0  0.3753044808471752  0.7041739687587046  0.8157731729208142  1.0000
  C   C87       1.0  0.875304481105102  0.7958260311648736  0.31577317266752497  1.0000
  C   C88       1.0  0.624695519233315  0.2958260313181326  0.18422682725929593  1.0000
  C   C89       1.0  0.01888600060606077  0.19585313142344687  0.5934253992316588  1.0000
  C   C90       1.0  0.48111399921028125  0.6958531312701879  0.9065746004598279  1.0000
  C   C91       1.0  0.9811139994744297  0.8041468686533906  0.4065746009484514  1.0000
  C   C92       1.0  0.5188860008639875  0.30414686880664943  0.09342539897836957  1.0000
  C   C93       1.0  0.8735504017262811  0.22985628611568118  0.5983212120731897  1.0000
  C   C94       1.0  0.6264495983913437  0.7298562859624222  0.9016787878260193  1.0000
  C   C95       1.0  0.12644959834798772  0.7701437139611561  0.40167878736500773  1.0000
  C   C96       1.0  0.3735504016891467  0.27014371373105983  0.09832121235409093  1.0000
  F   F1        1.0  0.8302625116624468  0.06646646707035994  0.3560250819797622  1.0000
  F   F2        1.0  0.66973748867597  0.566466466917101  0.14397491794705877  1.0000
  F   F3        1.0  0.16973748841804345  0.9335335330064775  0.643974918200348  1.0000
  F   F4        1.0  0.3302625114045202  0.43353353315973636  0.8560250822330514  1.0000
  F   F5        1.0  0.8075839129352768  0.9143964244796973  0.5445709067214782  1.0000
  F   F6        1.0  0.6924160860067049  0.414396424249601  0.9554290931773238  1.0000
  F   F7        1.0  0.19241608596957044  0.08560357559714003  0.45542909345822513  1.0000
  F   F8        1.0  0.3075839140737855  0.5856035758272363  0.04457090700278638  1.0000
  F   F9        1.0  0.5157911245682609  0.05978619427841687  0.6434985490587424  1.0000
  F   F10       1.0  0.9842088755555852  0.5597861941251578  0.8565014515823793  1.0000
  F   F11       1.0  0.48420887551222924  0.9402138057984205  0.3565014511213678  1.0000
  F   F12       1.0  0.015791124524905092  0.44021380595167947  0.1434985485977309  1.0000
  S   S1        1.0  0.4020032370701317  0.1726429968884917  0.7863958548910498  1.0000
  S   S2        1.0  0.09799676392185347  0.6726429967352328  0.7136041448008437  1.0000
  S   S3        1.0  0.5979967630103585  0.8273570031883457  0.21360414528906035  1.0000
  S   S4        1.0  0.9020032361586368  0.32735700334160456  0.28639585537926654  1.0000
  I   I1        1.0  0.44938973825432066  0.22526329962598238  0.4422732273812545  1.0000
  I   I2        1.0  0.05061026178281368  0.7252632994727234  0.05772677233784417  1.0000
  I   I3        1.0  0.5506102618199481  0.7747367004508551  0.5577267720569429  1.0000
  I   I4        1.0  0.9493897382976766  0.2747367006041139  0.942273227842266  1.0000
  I   I5        1.0  0.1323795394760593  0.905879957342467  0.21546657784618245  1.0000
  I   I6        1.0  0.3676204605672966  0.40587995711237057  0.28453342261482906  1.0000
  I   I7        1.0  0.867620460604431  0.0941200427343705  0.7845334223339278  1.0000
  I   I8        1.0  0.6323795395131937  0.5941200425811115  0.7154665775652811  1.0000
  I   I9        1.0  0.4359447928282343  0.8895197958638549  0.8498411923359548  1.0000
  I   I10       1.0  0.06405520698810772  0.38951979563375844  0.6501588073555317  1.0000
  I   I11       1.0  0.564055207252256  0.11048020421298257  0.1501588078441553  1.0000
  I   I12       1.0  0.9359447930861611  0.6104802040597236  0.3498411920826657  1.0000
  I   I13       1.0  0.23014960627567038  0.32904495113393145  0.4590194111957718  1.0000
  I   I14       1.0  0.269850393761464  0.8290449513640278  0.0409805885233269  1.0000
  I   I15       1.0  0.7698503937985983  0.6709550485595506  0.5409805882424256  1.0000
  I   I16       1.0  0.7301496063190264  0.1709550487128096  0.9590194116567833  1.0000
