data_image0
_chemical_formula_structural       H104C180O12
_chemical_formula_sum              "H104 C180 O12"
_cell_length_a       12.018356530184409
_cell_length_b       14.038533217872349
_cell_length_c       17.00493214113216
_cell_angle_alpha    90.0
_cell_angle_beta     92.24636566471007
_cell_angle_gamma    90.0

_space_group_name_H-M_alt    "P 1"
_space_group_IT_number       1

loop_
  _space_group_symop_operation_xyz
  'x, y, z'

loop_
  _atom_site_type_symbol
  _atom_site_label
  _atom_site_symmetry_multiplicity
  _atom_site_fract_x
  _atom_site_fract_y
  _atom_site_fract_z
  _atom_site_occupancy
  H   H1        1.0  0.21445019966267445  0.9901207878544047  0.590893921197986  1.0000
  H   H2        1.0  0.2855497999365299  0.49012078777862567  0.9091060786351514  1.0000
  H   H3        1.0  0.7855498004202806  0.0098792115848282  0.4091060789030154  1.0000
  H   H4        1.0  0.7144501993137261  0.5098792116606072  0.09089392144158359  1.0000
  H   H5        1.0  0.3989524424354633  0.3465002443280348  0.5485252325837079  1.0000
  H   H6        1.0  0.1010475571620434  0.8465002444038138  0.9514747678374461  1.0000
  H   H7        1.0  0.6010475576474915  0.6534997558235234  0.4514747675172937  1.0000
  H   H8        1.0  0.8989524429209114  0.15349975574774427  0.04852523226355548  1.0000
  H   H9        1.0  0.5489326291076143  0.9650942024877287  0.7059631824315442  1.0000
  H   H10       1.0  0.9510673710168177  0.46509420312427474  0.794036817719958  1.0000
  H   H11       1.0  0.4510673709753404  0.03490579695150427  0.2940368176694573  1.0000
  H   H12       1.0  0.04893262906613701  0.5349057970272832  0.2059631823810435  1.0000
  H   H13       1.0  0.39481033140458976  0.9141316497126866  0.5974057598812906  1.0000
  H   H14       1.0  0.10518966902731319  0.41413164963690763  0.9025942399761134  1.0000
  H   H15       1.0  0.605189668678365  0.08586835043887142  0.4025942402197109  1.0000
  H   H16       1.0  0.8948103310556416  0.5858683505146504  0.09740576012488819  1.0000
  H   H17       1.0  0.27466837065044675  0.24532135277605296  0.9197866113797297  1.0000
  H   H18       1.0  0.22533162894705996  0.745321352851832  0.580213389041424  1.0000
  H   H19       1.0  0.725331629432508  0.754678647375505  0.08021338872127182  1.0000
  H   H20       1.0  0.7746683711358949  0.25467864729972606  0.4197866110595774  1.0000
  H   H21       1.0  0.17594783813645687  0.11965448981959835  0.7011984667583024  1.0000
  H   H22       1.0  0.32405216146274746  0.6196544898953773  0.7988015330748349  1.0000
  H   H23       1.0  0.8240521619464979  0.8803455096196345  0.29880153334269915  1.0000
  H   H24       1.0  0.675947838621905  0.38034551025618063  0.20119846643815004  1.0000
  H   H25       1.0  0.6534367876361623  0.10272136038857167  0.9224904779702682  1.0000
  H   H26       1.0  0.84656321248827  0.6027213604643507  0.5775095221812342  1.0000
  H   H27       1.0  0.3465632124467925  0.8972786397629864  0.07750952213073334  1.0000
  H   H28       1.0  0.15343678759468488  0.3972786396872074  0.42249047791976746  1.0000
  H   H29       1.0  0.38293519034938683  0.1026902367666648  0.4663584268238729  1.0000
  H   H30       1.0  0.11706480969378816  0.6026902368424437  0.033641572638611394  1.0000
  H   H31       1.0  0.6170648097352655  0.8973097626725681  0.5336415726891122  1.0000
  H   H32       1.0  0.8829351903908643  0.3973097625967891  0.9663584268743736  1.0000
  H   H33       1.0  0.40016566831470307  0.49597066958076785  0.5969058463382426  1.0000
  H   H34       1.0  0.09983433128450121  0.9959706696565469  0.9030941534948947  1.0000
  H   H35       1.0  0.5998343317682517  0.5040293305707901  0.4030941537627588  1.0000
  H   H36       1.0  0.9001656687984536  0.004029330495011146  0.0969058466061068  1.0000
  H   H37       1.0  0.6057911135195377  0.42827874299187135  0.9917733412037021  1.0000
  H   H38       1.0  0.8942088866048945  0.9282787430676503  0.5082266589478003  1.0000
  H   H39       1.0  0.39420888656341707  0.5717212564473615  0.008226658897299557  1.0000
  H   H40       1.0  0.10579111347806026  0.07172125637158253  0.4917733411532012  1.0000
  H   H41       1.0  0.7808048585632851  0.3997014775629406  0.6683689039299172  1.0000
  H   H42       1.0  0.7191951407284485  0.8997014776387197  0.8316310961973186  1.0000
  H   H43       1.0  0.21919514151966965  0.6002985218762923  0.3316310961710843  1.0000
  H   H44       1.0  0.28080485852180775  0.10029852251283845  0.16836890387941647  1.0000
  H   H45       1.0  0.600578068555828  0.20028267600068636  0.04797472582195424  1.0000
  H   H46       1.0  0.8994219311781787  0.7002826760764653  0.4520252745226448  1.0000
  H   H47       1.0  0.39942193152712685  0.7997173241508717  0.9520252742790473  1.0000
  H   H48       1.0  0.10057806807207743  0.29971732407509266  0.5479747255540901  1.0000
  H   H49       1.0  0.5295834538854622  0.5978513830287479  0.6785770912221599  1.0000
  H   H50       1.0  0.9704165462389699  0.09785138295296877  0.8214229089293424  1.0000
  H   H51       1.0  0.4704165461974925  0.40214861712281025  0.32142290887884156  1.0000
  H   H52       1.0  0.029583453843984864  0.9021486171985893  0.17857709117165918  1.0000
  H   H53       1.0  0.7105775981753166  0.41317726004420124  0.7895667106723027  1.0000
  H   H54       1.0  0.7894224019491156  0.9131772601199802  0.7104332894791997  1.0000
  H   H55       1.0  0.28942240190763824  0.5868227401073568  0.2104332894286989  1.0000
  H   H56       1.0  0.21057759813383917  0.08682274003157779  0.28956671062180184  1.0000
  H   H57       1.0  0.41120316274204355  0.2635128800557601  0.04619666203829195  1.0000
  H   H58       1.0  0.08879683729943388  0.7635128801315391  0.4538033380122088  1.0000
  H   H59       1.0  0.5887968373409113  0.7364871200957979  0.9538033380627094  1.0000
  H   H60       1.0  0.9112031619508223  0.2364871200200189  0.5461966620645262  1.0000
  H   H61       1.0  0.4198964535268432  0.24353919793040651  0.38558675827464806  1.0000
  H   H62       1.0  0.08010354651633182  0.7435391980061854  0.11441324118783625  1.0000
  H   H63       1.0  0.5801035465578093  0.7564608022211515  0.614413241238337  1.0000
  H   H64       1.0  0.9198964535683206  0.25646080214537254  0.8855867583251489  1.0000
  H   H65       1.0  0.6285329498819254  0.6324300653217098  0.8096240362442039  1.0000
  H   H66       1.0  0.8714670502425067  0.13243006524593065  0.6903759639072985  1.0000
  H   H67       1.0  0.3714670502010294  0.3675699348298484  0.19037596385679775  1.0000
  H   H68       1.0  0.12853294984044802  0.8675699349056274  0.309624036193703  1.0000
  H   H69       1.0  0.7080522501768196  0.5599766127982589  0.9318090700779091  1.0000
  H   H70       1.0  0.7919477499476124  0.05997661272247994  0.5681909300735931  1.0000
  H   H71       1.0  0.2919477499061351  0.4400233866409739  0.06819093002309234  1.0000
  H   H72       1.0  0.20805225013534231  0.9400233867167529  0.4318090700274084  1.0000
  H   H73       1.0  0.5884226268946021  0.3389509399701495  0.41813212650678516  1.0000
  H   H74       1.0  0.9115773728411021  0.8389509400459285  0.08186787324979745  1.0000
  H   H75       1.0  0.4115773731883527  0.6610490601814084  0.5818678735942163  1.0000
  H   H76       1.0  0.0884226272418527  0.1610490601056295  0.9181321268512042  1.0000
  H   H77       1.0  0.7146935252880965  0.4054433359714372  0.528595196446699  1.0000
  H   H78       1.0  0.7853064748380334  0.9054433360472163  0.9714048031167867  1.0000
  H   H79       1.0  0.28530647479655585  0.5945566641801209  0.471404803066286  1.0000
  H   H80       1.0  0.21469352524492152  0.0945566641043418  0.02859519698421471  1.0000
  H   H81       1.0  0.5343119975825079  0.9191943125206157  0.9350618820209554  1.0000
  H   H82       1.0  0.9656880025436219  0.41919431244483674  0.5649381175425303  1.0000
  H   H83       1.0  0.4656880025021444  0.08080568763094229  0.0649381174920296  1.0000
  H   H84       1.0  0.03431199753933297  0.5808056877067214  0.43506188255847117  1.0000
  H   H85       1.0  0.5592795345635262  0.9829722361900302  0.8458753314221672  1.0000
  H   H86       1.0  0.9407204655626036  0.48297223611425105  0.6541246681413185  1.0000
  H   H87       1.0  0.4407204655194286  0.017027763249202837  0.15412466867883423  1.0000
  H   H88       1.0  0.0592795345220488  0.5170277633249819  0.34587533137166654  1.0000
  H   H89       1.0  0.46975903437578426  0.8829790205018777  0.8429961631622384  1.0000
  H   H90       1.0  0.030240966054421187  0.3829790204260988  0.6570038372831821  1.0000
  H   H91       1.0  0.5302409657071706  0.11702097964968024  0.1570038369387632  1.0000
  H   H92       1.0  0.9697590340285336  0.6170209797254592  0.3429961628178194  1.0000
  H   H93       1.0  0.28214620300883303  0.10473730034189745  0.8350088473873059  1.0000
  H   H94       1.0  0.21785379742137237  0.6047372997053513  0.6649911530581145  1.0000
  H   H95       1.0  0.7178537970741218  0.8952626998096606  0.16499115271369555  1.0000
  H   H96       1.0  0.7821462026615824  0.3952626997338816  0.335008847042887  1.0000
  H   H97       1.0  0.3561375184963853  0.030082965466958243  0.7691667219948044  1.0000
  H   H98       1.0  0.14386248110281893  0.5300829655427373  0.730833277838333  1.0000
  H   H99       1.0  0.6438624815865694  0.9699170346845998  0.2308332781061971  1.0000
  H   H100      1.0  0.8561375189818335  0.4699170346088207  0.2691667216746521  1.0000
  H   H101      1.0  0.4262974616234741  0.12511451892736983  0.8172018911198473  1.0000
  H   H102      1.0  0.07370253797573022  0.6251145190031488  0.6827981087132899  1.0000
  H   H103      1.0  0.5737025376284796  0.8748854812241882  0.18279810836887112  1.0000
  H   H104      1.0  0.9262974621072244  0.3748854811484092  0.3172018913877115  1.0000
  C   C1        1.0  0.6507570157730951  0.18340778271066613  0.6557202396275882  1.0000
  C   C2        1.0  0.849242984351337  0.68340778207412  0.8442797605239141  1.0000
  C   C3        1.0  0.34924298430985967  0.8165922174408919  0.34427976047341335  1.0000
  C   C4        1.0  0.1507570157316177  0.3165922173651129  0.15572023957708744  1.0000
  C   C5        1.0  0.44997043468492676  0.44281389896815404  0.8210439549463316  1.0000
  C   C6        1.0  0.05002956574697624  0.942813899043933  0.6789560449110723  1.0000
  C   C7        1.0  0.550029565398028  0.557186101183404  0.17895604515466987  1.0000
  C   C8        1.0  0.9499704343359785  0.05718610110762499  0.3210439551899291  1.0000
  C   C9        1.0  0.5106759570328948  0.12845062600302756  0.5576750445215461  1.0000
  C   C10       1.0  0.9893240422588387  0.6284506260788065  0.9423249556056895  1.0000
  C   C11       1.0  0.48932404221736125  0.8715493734362053  0.4423249555551888  1.0000
  C   C12       1.0  0.010675957824116117  0.3715493733604263  0.05767504449531197  1.0000
  C   C13       1.0  0.2995894121791763  0.32600490656484876  0.8151320262348759  1.0000
  C   C14       1.0  0.20041058742002804  0.8260049066406278  0.6848679735982615  1.0000
  C   C15       1.0  0.7004105879037785  0.6739950935867093  0.18486797386612558  1.0000
  C   C16       1.0  0.7995894126629267  0.17399509351093026  0.31513202650274  1.0000
  C   C17       1.0  0.3638238016037745  0.3956643855733125  0.7770984356148349  1.0000
  C   C18       1.0  0.1361761979954298  0.8956643856490916  0.7229015642183024  1.0000
  C   C19       1.0  0.6361761984791803  0.6043356145782456  0.22290156448616652  1.0000
  C   C20       1.0  0.863823802087525  0.1043356145024665  0.2770984358826991  1.0000
  C   C21       1.0  0.5101346257489001  0.5176084543326166  0.7846197442380684  1.0000
  C   C22       1.0  0.9898653743755321  0.017608454256837575  0.715380255913434  1.0000
  C   C23       1.0  0.48986537433405464  0.48239154581894145  0.21538025586293325  1.0000
  C   C24       1.0  0.010134625707422752  0.9823915451823954  0.28461974418756747  1.0000
  C   C25       1.0  0.7145746482805013  0.2606046104120325  0.7764613427821104  1.0000
  C   C26       1.0  0.7854253518439309  0.7606046104878116  0.7235386573693919  1.0000
  C   C27       1.0  0.2854253518024535  0.7393953897395256  0.22353865731889108  1.0000
  C   C28       1.0  0.2145746482390239  0.23939538966374652  0.27646134273160966  1.0000
  C   C29       1.0  0.710436733213153  0.26166112320933227  0.6903150817850507  1.0000
  C   C30       1.0  0.7895632669112791  0.7616611225727862  0.8096849183664516  1.0000
  C   C31       1.0  0.28956326686980177  0.7383388769422258  0.30968491831595085  1.0000
  C   C32       1.0  0.2104367331716756  0.23833887686644675  0.19031508173454992  1.0000
  C   C33       1.0  0.3526294226955292  0.4092217513640419  0.6941304703300107  1.0000
  C   C34       1.0  0.14737057773467616  0.9092217514398209  0.8058695301154096  1.0000
  C   C35       1.0  0.6473705773874255  0.5907782487875162  0.3058695297709908  1.0000
  C   C36       1.0  0.8526294223482787  0.09077824871173718  0.1941304699855919  1.0000
  C   C37       1.0  0.595905166509319  0.19380687481910264  0.5808946529005606  1.0000
  C   C38       1.0  0.9040948336151132  0.6938068748948816  0.9191053472509417  1.0000
  C   C39       1.0  0.4040948335736358  0.8061931253324554  0.4191053472004409  1.0000
  C   C40       1.0  0.09590516646784154  0.30619312525667636  0.08089465285005983  1.0000
  C   C41       1.0  0.2429515609644125  0.2604809400845805  0.6944446952615623  1.0000
  C   C42       1.0  0.2570484394674905  0.7604809401603595  0.8055553045958418  1.0000
  C   C43       1.0  0.7570484391185424  0.7395190600669774  0.3055553048394392  1.0000
  C   C44       1.0  0.7429515606171619  0.23951905999119852  0.1944446949171434  1.0000
  C   C45       1.0  0.2888476020203497  0.0343678461639971  0.5892081739556977  1.0000
  C   C46       1.0  0.2111523984098557  0.5343678462397761  0.9107918264897228  1.0000
  C   C47       1.0  0.7111523980626051  0.965632153987561  0.41079182614530385  1.0000
  C   C48       1.0  0.7888476016730992  0.4656321539117819  0.08920817361127872  1.0000
  C   C49       1.0  0.33864025331173486  0.20345609229059358  0.5555460357059645  1.0000
  C   C50       1.0  0.1613597471184706  0.7034560923663725  0.9444539647394559  1.0000
  C   C51       1.0  0.66135974677122  0.7965439078609644  0.444453964395037  1.0000
  C   C52       1.0  0.8386402529644842  0.29654390778518547  0.0555460353615456  1.0000
  C   C53       1.0  0.633531580487558  0.09887918975985303  0.699155275469078  1.0000
  C   C54       1.0  0.8664684196385718  0.5988791898356322  0.800844724094408  1.0000
  C   C55       1.0  0.36646841959539683  0.901120810391705  0.3008447246319237  1.0000
  C   C56       1.0  0.13353158044608063  0.401120810315926  0.19915527541857708  1.0000
  C   C57       1.0  0.3459894287677348  0.2979110620100702  0.5800851258223427  1.0000
  C   C58       1.0  0.15401057083146952  0.7979110620858493  0.9199148740107947  1.0000
  C   C59       1.0  0.6540105704842188  0.7020889381414879  0.41991487366637587  1.0000
  C   C60       1.0  0.8459894292514852  0.20208893806570877  0.08008512609020678  1.0000
  C   C61       1.0  0.3046434482359337  0.3271715540874795  0.6521604262078894  1.0000
  C   C62       1.0  0.1953565521959693  0.8271715541632585  0.8478395736495148  1.0000
  C   C63       1.0  0.6953565518470212  0.6728284460640785  0.3478395738931122  1.0000
  C   C64       1.0  0.8046434478869855  0.17282844598829955  0.15216042645148686  1.0000
  C   C65       1.0  0.5625547535438596  0.028652788988518217  0.6709252189722474  1.0000
  C   C66       1.0  0.9374452465805725  0.5286527890642972  0.8290747811792548  1.0000
  C   C67       1.0  0.43744524653909517  0.9713472111630398  0.32907478112875405  1.0000
  C   C68       1.0  0.06255475350238221  0.4713472110872608  0.17092521892174672  1.0000
  C   C69       1.0  0.49299136353639866  0.04716258456097778  0.6028293898457031  1.0000
  C   C70       1.0  0.007008636062805646  0.5471625846367568  0.8971706099874343  1.0000
  C   C71       1.0  0.5070086365482538  0.9528374148782551  0.39717060966728196  1.0000
  C   C72       1.0  0.9929913631874504  0.4528374148024761  0.10282939008930062  1.0000
  C   C73       1.0  0.39014078274393843  0.991638225585925  0.5924879544585376  1.0000
  C   C74       1.0  0.10985921768796462  0.49163822551014597  0.9075120453988663  1.0000
  C   C75       1.0  0.609859217340714  0.008361774565633072  0.40751204505444744  1.0000
  C   C76       1.0  0.8901407823949902  0.5083617746414121  0.09248795470213517  1.0000
  C   C77       1.0  0.4827479723479159  0.40842481483040477  0.8969201667562792  1.0000
  C   C78       1.0  0.017252027251288403  0.9084248149061839  0.6030798330768582  1.0000
  C   C79       1.0  0.5172520277350389  0.5915751853211533  0.10307983334472233  1.0000
  C   C80       1.0  0.9827479728333641  0.09157518524537424  0.3969201664361269  1.0000
  C   C81       1.0  0.6424276185028087  0.2559589776391605  0.932513256500044  1.0000
  C   C82       1.0  0.8575723816216234  0.7559589777149396  0.5674867436514582  1.0000
  C   C83       1.0  0.357572381580146  0.7440410225123976  0.06748674360095748  1.0000
  C   C84       1.0  0.1424276184613314  0.24404102243661854  0.4325132564495433  1.0000
  C   C85       1.0  0.3227794411812269  0.30097564071870836  0.8924243266305929  1.0000
  C   C86       1.0  0.1772205584179774  0.8009756407944874  0.6075756732025445  1.0000
  C   C87       1.0  0.6772205580690291  0.6990243594328497  0.10757567344614202  1.0000
  C   C88       1.0  0.8227794416649775  0.1990243593570707  0.392424326898457  1.0000
  C   C89       1.0  0.6182566935494566  0.2763063027882256  0.5347330246491702  1.0000
  C   C90       1.0  0.8817433065749755  0.7763063028640047  0.9652669755023322  1.0000
  C   C91       1.0  0.3817433065334982  0.7236936973633324  0.4652669754518314  1.0000
  C   C92       1.0  0.11825669350797918  0.22369369728755342  0.034733024598669344  1.0000
  C   C93       1.0  0.2763026018887078  0.13768128122810666  0.5989074948426076  1.0000
  C   C94       1.0  0.22369739854319518  0.6376812813038857  0.9010925050147963  1.0000
  C   C95       1.0  0.7236973981959447  0.8623187182111263  0.4010925046703775  1.0000
  C   C96       1.0  0.7763026015397596  0.36231871884767236  0.09890749508620511  1.0000
  C   C97       1.0  0.22130406523040946  0.1696470046434773  0.6655022099046929  1.0000
  C   C98       1.0  0.27869593520149355  0.6696470047192563  0.8344977899527112  1.0000
  C   C99       1.0  0.7786959348525453  0.8303529947957556  0.3344977901963086  1.0000
  C   C100      1.0  0.7213040648831588  0.3303529947199766  0.16550220956027403  1.0000
  C   C101      1.0  0.4209990689679969  0.33669376185130884  0.9318620057881685  1.0000
  C   C102      1.0  0.07900093063120738  0.8366937619270878  0.5681379940449691  1.0000
  C   C103      1.0  0.5790009311166554  0.6633062383002493  0.06813799372481667  1.0000
  C   C104      1.0  0.9209990694517475  0.16330623822447024  0.4318620060560325  1.0000
  C   C105      1.0  0.6693118056877952  0.17076119013260566  0.8941783877408168  1.0000
  C   C106      1.0  0.8306881944383345  0.6707611902083847  0.605821611822669  1.0000
  C   C107      1.0  0.33068819439515956  0.8292388093066273  0.10582161236018467  1.0000
  C   C108      1.0  0.16931180564631787  0.3292388099431734  0.3941783876903161  1.0000
  C   C109      1.0  0.6952730826347284  0.17380281202695277  0.8153830431666965  1.0000
  C   C110      1.0  0.8047269174897038  0.6738028121027317  0.6846169569848057  1.0000
  C   C111      1.0  0.30472691744822633  0.8261971881246052  0.18461695693430497  1.0000
  C   C112      1.0  0.19527308259325105  0.32619718804882625  0.3153830431161958  1.0000
  C   C113      1.0  0.6605522373869738  0.34403767295654786  0.894821705552751  1.0000
  C   C114      1.0  0.8394477627374584  0.8440376730323269  0.6051782945987514  1.0000
  C   C115      1.0  0.339447762695981  0.6559623264826852  0.1051782945482506  1.0000
  C   C116      1.0  0.16055223734549642  0.15596232711923116  0.39482170550225015  1.0000
  C   C117      1.0  0.4221855360550305  0.16292047000239515  0.49817808982053075  1.0000
  C   C118      1.0  0.07781446398644683  0.6629204700781741  0.001821910229970024  1.0000
  C   C119      1.0  0.5778144640279242  0.8370795301491629  0.5018219102804707  1.0000
  C   C120      1.0  0.9221855360965079  0.33707953007338387  0.9981780898710315  1.0000
  C   C121      1.0  0.4102125568326309  0.4836155533226687  0.660107970506805  1.0000
  C   C122      1.0  0.08978744359927206  0.9836155533984478  0.8398920293505989  1.0000
  C   C123      1.0  0.5897874432503238  0.5163844468288894  0.3398920295941964  1.0000
  C   C124      1.0  0.9102125564836827  0.016384446753110325  0.16010797075040265  1.0000
  C   C125      1.0  0.6000879767801423  0.4313882758271412  0.9271546269833362  1.0000
  C   C126      1.0  0.8999120233459876  0.9313882759029203  0.5728453725801497  1.0000
  C   C127      1.0  0.3999120233045101  0.5686117236120918  0.07284537252964889  1.0000
  C   C128      1.0  0.10008797673696723  0.06861172424863785  0.42715462752085187  1.0000
  C   C129      1.0  0.7345743529087602  0.3394600380282644  0.6432738823673108  1.0000
  C   C130      1.0  0.7654256463846709  0.8394600381040435  0.8567261171719085  1.0000
  C   C131      1.0  0.26542564717589223  0.6605399621232937  0.35672611714567437  1.0000
  C   C132      1.0  0.23457435286728273  0.1605399620475146  0.14327388231681001  1.0000
  C   C133      1.0  0.5719746563490044  0.24788795709580688  0.0008086795756230914  1.0000
  C   C134      1.0  0.9280253433850023  0.7478879564592608  0.499191320768976  1.0000
  C   C135      1.0  0.4280253437339504  0.7521120430557511  0.9991913205253785  1.0000
  C   C136      1.0  0.07197465669795258  0.25211204297997214  0.5008086793320254  1.0000
  C   C137      1.0  0.4847419772921714  0.5398027480785854  0.7059997588426227  1.0000
  C   C138      1.0  0.015258023139731638  0.039802748002806414  0.7940002410147814  1.0000
  C   C139      1.0  0.5152580227907835  0.46019725207297263  0.294000241258379  1.0000
  C   C140      1.0  0.9847419769432232  0.9601972514364265  0.20599975908622012  1.0000
  C   C141      1.0  0.703033409173937  0.3450974574631699  0.8196977100106266  1.0000
  C   C142      1.0  0.7969665909504952  0.8450974575389489  0.6803022901408757  1.0000
  C   C143      1.0  0.29696659090901767  0.6549025426883882  0.18030229009037493  1.0000
  C   C144      1.0  0.20303340913245974  0.15490254261260913  0.3196977099601258  1.0000
  C   C145      1.0  0.46719341086779426  0.2835724165920621  0.9999204423713758  1.0000
  C   C146      1.0  0.03280658956410877  0.7835724166678412  0.5000795574860283  1.0000
  C   C147      1.0  0.5328065892151606  0.7164275835594959  7.955772962567724e-05  1.0000
  C   C148      1.0  0.9671934105205436  0.21642758348371688  0.49992044202695696  1.0000
  C   C149      1.0  0.46660067817982326  0.23385807470401587  0.4413330135034825  1.0000
  C   C150      1.0  0.03339932186165413  0.7338580747797949  0.058666986547018275  1.0000
  C   C151      1.0  0.5333993219031316  0.7661419254475421  0.5586669865975191  1.0000
  C   C152      1.0  0.9666006782213006  0.2661419253717631  0.9413330135539834  1.0000
  C   C153      1.0  0.5970746768525921  0.5650009111993344  0.831384021334481  1.0000
  C   C154      1.0  0.9029253224391413  0.06500091112355535  0.6686159787927547  1.0000
  C   C155      1.0  0.4029253232303627  0.43499908895222367  0.16861597876652057  1.0000
  C   C156      1.0  0.09707467681111473  0.9349990890280027  0.3313840212839802  1.0000
  C   C157      1.0  0.6401828884677334  0.5256190889377212  0.8981747044109067  1.0000
  C   C158      1.0  0.8598171116566987  0.02561908886194227  0.6018252957405956  1.0000
  C   C159      1.0  0.3598171116152214  0.47438091121383674  0.10182529569009491  1.0000
  C   C160      1.0  0.14018288842625604  0.9743809112896158  0.39817470436040586  1.0000
  C   C161      1.0  0.5583223562646492  0.2862194944187321  0.4593009397251522  1.0000
  C   C162      1.0  0.941677643471055  0.7862194944945112  0.04069906003143042  1.0000
  C   C163      1.0  0.4416776429856069  0.7137805057328259  0.5406990603515828  1.0000
  C   C164      1.0  0.05832235661359739  0.2137805056570469  0.9593009394815547  1.0000
  C   C165      1.0  0.6928667940598396  0.3445026958972415  0.564829362331373  1.0000
  C   C166      1.0  0.8071332060645926  0.8445026952606953  0.9351706378201293  1.0000
  C   C167      1.0  0.3071332060231152  0.6554973042543165  0.43517063776962855  1.0000
  C   C168      1.0  0.19286679401836218  0.15549730417853755  0.06482936228087223  1.0000
  C   C169      1.0  0.39732406700058714  0.006779317933218099  0.8921171298189841  1.0000
  C   C170      1.0  0.1026759334313159  0.5067793180089971  0.60788287003842  1.0000
  C   C171      1.0  0.6026759330823677  0.9932206822183399  0.10788287028201743  1.0000
  C   C172      1.0  0.8973240666516389  0.49322068214256093  0.39211713006258164  1.0000
  C   C173      1.0  0.49711614006630256  0.9445270466802818  0.8791990921533251  1.0000
  C   C174      1.0  0.00288386036560048  0.4445270473168278  0.6208009077040789  1.0000
  C   C175      1.0  0.5028838600183498  0.055472952758951206  0.12080090735965993  1.0000
  C   C176      1.0  0.9971161397173542  0.5554729528347302  0.3791990923969226  1.0000
  C   C177      1.0  0.3618276915217508  0.07043687290215817  0.8246350499426351  1.0000
  C   C178      1.0  0.13817230807745354  0.5704368729779372  0.6753649498905023  1.0000
  C   C179      1.0  0.6381723085629016  0.9295631272493999  0.17536494957034998  1.0000
  C   C180      1.0  0.8618276911728027  0.4295631271736209  0.3246350501862326  1.0000
  O   O1        1.0  0.2148181750728067  0.27954816996150406  0.7719970357225173  1.0000
  O   O2        1.0  0.2851818245263976  0.779548170037283  0.7280029641106202  1.0000
  O   O3        1.0  0.7851818250101482  0.720451830190054  0.22800296437848422  1.0000
  O   O4        1.0  0.7148181755565571  0.22045183011427494  0.27199703599038144  1.0000
  O   O5        1.0  0.6867400435110813  0.08852942402969645  0.7729249555393165  1.0000
  O   O6        1.0  0.8132599557806521  0.5885294241054755  0.7270750445879192  1.0000
  O   O7        1.0  0.31325995573917464  0.9114705761218616  0.2270750445374184  1.0000
  O   O8        1.0  0.18674004430230276  0.41147057604608256  0.2729249555130824  1.0000
  O   O9        1.0  0.3477296587899312  0.0050998105634607474  0.9542108972986107  1.0000
  O   O10       1.0  0.1522703408092731  0.5050998106392398  0.5457891025345268  1.0000
  O   O11       1.0  0.6522703412930235  0.9949001888757723  0.0457891028023909  1.0000
  O   O12       1.0  0.8477296592736816  0.49490018879999315  0.4542108975664747  1.0000
