data_image0
_chemical_formula_structural       H28C32N8O8
_chemical_formula_sum              "H28 C32 N8 O8"
_cell_length_a       4.6985743753578095
_cell_length_b       20.824740752632945
_cell_length_c       7.678307335606686
_cell_angle_alpha    90.0
_cell_angle_beta     97.67522439863036
_cell_angle_gamma    90.0

_space_group_name_H-M_alt    "P 1"
_space_group_IT_number       1

loop_
  _space_group_symop_operation_xyz
  'x, y, z'

loop_
  _atom_site_type_symbol
  _atom_site_label
  _atom_site_symmetry_multiplicity
  _atom_site_fract_x
  _atom_site_fract_y
  _atom_site_fract_z
  _atom_site_occupancy
  H   H1        1.0  0.7496558557362363  0.3739127277738384  0.279981806459333  1.0000
  H   H2        1.0  0.750344143677832  0.8739127274705226  0.22001819264714942  1.0000
  H   H3        1.0  0.2503441432345175  0.6260872725799262  0.7200181930557726  1.0000
  H   H4        1.0  0.24965585743968297  0.12608727240304393  0.7799818070785901  1.0000
  H   H5        1.0  0.5524050191499738  0.33809455702875035  0.6056790976071689  1.0000
  H   H6        1.0  0.9475949814239097  0.8380945572056325  0.8943209025247002  1.0000
  H   H7        1.0  0.4475949819675412  0.6619054428448162  0.3943209021185706  1.0000
  H   H8        1.0  0.05240501754684406  0.16190544314813196  0.10567909699040551  1.0000
  H   H9        1.0  0.29017109710324096  0.292165303869665  0.6955427691918485  1.0000
  H   H10       1.0  0.20982890142419836  0.7921653035663492  0.8044572307318806  1.0000
  H   H11       1.0  0.7098289018675128  0.7078346964840996  0.3044572303232573  1.0000
  H   H12       1.0  0.7901710975465556  0.20783469630721732  0.19554276878322518  1.0000
  H   H13       1.0  0.44477690467293957  0.33412629442314973  0.029554556009822597  1.0000
  H   H14       1.0  0.0552230947834291  0.8341262946000321  0.470445444396307  1.0000
  H   H15       1.0  0.5552230942397977  0.6658737054504168  0.9704454448024366  1.0000
  H   H16       1.0  0.9447769063340857  0.16587370575373256  0.5295545553294325  1.0000
  H   H17       1.0  0.05128794090316595  0.39738832902175264  0.8680121911520154  1.0000
  H   H18       1.0  0.44871205977103445  0.8973883287184368  0.6319878089823474  1.0000
  H   H19       1.0  0.948712060214349  0.6026116708518139  0.1319878085737241  1.0000
  H   H20       1.0  0.5512879413464804  0.10261167115512972  0.3680121907433922  1.0000
  H   H21       1.0  0.2595564953281703  0.5487755163797228  0.25469113348179734  1.0000
  H   H22       1.0  0.24044350418621485  0.04877551620284046  0.24530886562717874  1.0000
  H   H23       1.0  0.7404435057893445  0.45122448349384375  0.7453088662439421  1.0000
  H   H24       1.0  0.759556494784539  0.9512244836707262  0.754691133887927  1.0000
  H   H25       1.0  0.6672590835209844  0.47977660700226366  0.387838821314638  1.0000
  H   H26       1.0  0.8327409158350673  0.9797766066989478  0.11216117908899796  1.0000
  H   H27       1.0  0.33274091753851387  0.520223393351501  0.612161179708255  1.0000
  H   H28       1.0  0.16725908313568655  0.020223393174618652  0.8878388204261077  1.0000
  C   C1        1.0  0.10857786435026483  0.35508880604264287  0.4884226035619727  1.0000
  C   C2        1.0  0.39142213725286484  0.8550888062195251  0.011577397054790706  1.0000
  C   C3        1.0  0.8914221367672501  0.6449111938309237  0.5115773961637669  1.0000
  C   C4        1.0  0.6085778638066334  0.14491119365404137  0.9884226039681023  1.0000
  C   C5        1.0  0.35293396614092315  0.3107886862496337  0.5718733794898496  1.0000
  C   C6        1.0  0.1470660345332772  0.810788686426516  0.9281266206445132  1.0000
  C   C7        1.0  0.6470660349765917  0.689211313623933  0.4281266202358899  1.0000
  C   C8        1.0  0.8529339665842377  0.18921131344705058  0.07187337908122637  1.0000
  C   C9        1.0  0.40248807963062416  0.25717239765987865  0.4605072083414305  1.0000
  C   C10       1.0  0.09751192197250558  0.757172397836761  0.039492792275332936  1.0000
  C   C11       1.0  0.5975119214288741  0.7428276022136879  0.5394927926814624  1.0000
  C   C12       1.0  0.9024880791450094  0.24282760203680562  0.9605072074504066  1.0000
  C   C13       1.0  0.3961552915635704  0.38241559616981646  0.07056669406545252  1.0000
  C   C14       1.0  0.10384471003955928  0.8824155958665008  0.4294333065513109  1.0000
  C   C15       1.0  0.6038447095539445  0.6175844041839481  0.929433305660287  1.0000
  C   C16       1.0  0.896155291019939  0.11758440400706582  0.5705666944715821  1.0000
  C   C17       1.0  0.17450078023126256  0.4185500498438609  0.9834075844264109  1.0000
  C   C18       1.0  0.3254992204429379  0.9185500495405452  0.516592415707952  1.0000
  C   C19       1.0  0.8254992187394912  0.5814499500297057  0.016592415088694867  1.0000
  C   C20       1.0  0.6745007806745771  0.0814499503330214  0.4834075840177876  1.0000
  C   C21       1.0  0.11836865215594489  0.48015135980676205  0.04530034104779854  1.0000
  C   C22       1.0  0.3816313494471848  0.9801513599836442  0.45469965956896485  1.0000
  C   C23       1.0  0.8816313489035532  0.5198486400668045  0.9546996599750944  1.0000
  C   C24       1.0  0.6183686516703302  0.019848639889922262  0.5453003401567746  1.0000
  C   C25       1.0  0.2947185665136507  0.502504008299692  0.19571737152037394  1.0000
  C   C26       1.0  0.20528143294271795  0.0025040081228097444  0.30428262888575563  1.0000
  C   C27       1.0  0.7052814346038643  0.49749599157387453  0.8042826282053656  1.0000
  C   C28       1.0  0.7947185659700192  0.9974959917507568  0.6957173719265035  1.0000
  C   C29       1.0  0.5176275287389244  0.46449139487016283  0.27473621553557837  1.0000
  C   C30       1.0  0.9823724728219051  0.9644913950470452  0.22526378378153797  1.0000
  C   C31       1.0  0.48237247237859054  0.5355086050034038  0.7252637841901614  1.0000
  C   C32       1.0  0.01762752829560986  0.0355086053067195  0.7747362159442016  1.0000
  N   N1        1.0  0.43296181810754114  0.2143938896063094  0.3669476925134346  1.0000
  N   N2        1.0  0.06703818134882751  0.7143938897831917  0.13305230789269495  1.0000
  N   N3        1.0  0.5670381829519572  0.7856061102672571  0.6330523085094584  1.0000
  N   N4        1.0  0.9329618176219264  0.2856061105705729  0.8669476916224107  1.0000
  N   N5        1.0  0.5637024201872566  0.4057816253454008  0.21166391039018406  1.0000
  N   N6        1.0  0.9362975792268118  0.905781625522283  0.28833608871629834  1.0000
  N   N7        1.0  0.4362975787834973  0.5942183745281657  0.7883360891249216  1.0000
  N   N8        1.0  0.06370242189070317  0.0942183743512835  0.7116639110094412  1.0000
  O   O1        1.0  0.9580300288099461  0.33278745902869356  0.34936904060834645  1.0000
  O   O2        1.0  0.5419699706041222  0.8327874592055758  0.150630958498136  1.0000
  O   O3        1.0  0.04196997016080772  0.6672125408448731  0.6506309589067593  1.0000
  O   O4        1.0  0.45803002836663165  0.16721254066799074  0.8493690410169696  1.0000
  O   O5        1.0  0.0728078056010182  0.4074920864946228  0.5616350165622284  1.0000
  O   O6        1.0  0.4271921950731822  0.9074920866715052  0.9383649835721344  1.0000
  O   O7        1.0  0.9271921933697356  0.5925079133789437  0.4383649829528773  1.0000
  O   O8        1.0  0.5728078060443327  0.09250791320206145  0.06163501615360514  1.0000
