data_image0
_chemical_formula_structural       H72C92N28O28F12
_chemical_formula_sum              "H72 C92 N28 O28 F12"
_cell_length_a       5.519272144974225
_cell_length_b       14.366701096791164
_cell_length_c       29.85073974756567
_cell_angle_alpha    90.0
_cell_angle_beta     90.0
_cell_angle_gamma    90.0

_space_group_name_H-M_alt    "P 1"
_space_group_IT_number       1

loop_
  _space_group_symop_operation_xyz
  'x, y, z'

loop_
  _atom_site_type_symbol
  _atom_site_label
  _atom_site_symmetry_multiplicity
  _atom_site_fract_x
  _atom_site_fract_y
  _atom_site_fract_z
  _atom_site_occupancy
  H   H1        1.0  0.3126282677637484  0.7444972953734639  0.8285311673730605  1.0000
  H   H2        1.0  0.18737173178562833  0.25550270484988835  0.32853116749978545  1.0000
  H   H3        1.0  0.6873717313350052  0.24449729526178782  0.6714688325817646  1.0000
  H   H4        1.0  0.8126282691249582  0.7555027049615645  0.17146883270848964  1.0000
  H   H5        1.0  0.7329265297569216  0.4341162030156671  0.7057516905160794  1.0000
  H   H6        1.0  0.7670734707030418  0.5658837972076852  0.20575169030780444  1.0000
  H   H7        1.0  0.267073471153665  0.9341162031273432  0.7942483094387456  1.0000
  H   H8        1.0  0.23292652839571182  0.06588379709600907  0.29424830956547054  1.0000
  H   H9        1.0  0.4160858804708795  0.5520659764941785  0.6633230099972564  1.0000
  H   H10       1.0  0.08391411907849725  0.44793402372917374  0.16332301012398132  1.0000
  H   H11       1.0  0.583914118627874  0.05206597638250239  0.8366769899575688  1.0000
  H   H12       1.0  0.9160858800202563  0.9479340238408499  0.33667699008429375  1.0000
  H   H13       1.0  0.41686509915896613  0.6524686200991308  0.7306468507795904  1.0000
  H   H14       1.0  0.0831349003904106  0.3475313801242215  0.23064685057131526  1.0000
  H   H15       1.0  0.5831348999397874  0.15246861998745465  0.7693531495102348  1.0000
  H   H16       1.0  0.916865100520176  0.8475313802358976  0.26935314930195975  1.0000
  H   H17       1.0  0.690208462264147  0.7071259206658828  0.7909520571236577  1.0000
  H   H18       1.0  0.8097915381958163  0.29287407886141553  0.29095205691538256  1.0000
  H   H19       1.0  0.3097915386464396  0.20712592055420664  0.7090479431661676  1.0000
  H   H20       1.0  0.1902084627147703  0.7928740789730916  0.20904794295789242  1.0000
  H   H21       1.0  0.8820449639239043  0.7958564442155599  0.8130511834963566  1.0000
  H   H22       1.0  0.617955034724226  0.20414355600779244  0.3130511832880815  1.0000
  H   H23       1.0  0.11795503517484919  0.29585644410388373  0.6869488164584685  1.0000
  H   H24       1.0  0.3820449643745276  0.7041435561194685  0.18694881658519352  1.0000
  H   H25       1.0  0.25723793694297536  0.810164208302467  0.7322666736184512  1.0000
  H   H26       1.0  0.2427620644182345  0.18983579192088518  0.23226667374517623  1.0000
  H   H27       1.0  0.7427620639676112  0.310164208190791  0.7677333263363738  1.0000
  H   H28       1.0  0.7572379364923522  0.6898357920325613  0.26773332646309883  1.0000
  H   H29       1.0  0.6412528983958135  0.8235133424361782  0.6492321414440139  1.0000
  H   H30       1.0  0.8587471020641498  0.176486657787174  0.1492321415707388  1.0000
  H   H31       1.0  0.35874710251477315  0.32351334232450213  0.8507678585108113  1.0000
  H   H32       1.0  0.14125289703460361  0.6764866578988502  0.35076785863753623  1.0000
  H   H33       1.0  0.8591726853545371  0.5838587719955771  0.8414226924492986  1.0000
  H   H34       1.0  0.6408273151054263  0.41614122822777516  0.34142269257602353  1.0000
  H   H35       1.0  0.14082731555604963  0.08385877188390095  0.6585773075055266  1.0000
  H   H36       1.0  0.35917268399332714  0.9161412276433972  0.15857730763225156  1.0000
  H   H37       1.0  0.35289921367142446  0.8610599222923208  0.9209833344998419  1.0000
  H   H38       1.0  0.1471007858779523  0.1389400779310315  0.4209833346265669  1.0000
  H   H39       1.0  0.6471007872391622  0.36105992218064464  0.5790166654549832  1.0000
  H   H40       1.0  0.8528992132208012  0.6389400773466536  0.07901666558170815  1.0000
  H   H41       1.0  0.7423829813739208  0.7409441296427868  0.9787342785159139  1.0000
  H   H42       1.0  0.7576170190860426  0.25905587058056545  0.4787342783076388  1.0000
  H   H43       1.0  0.25761701953666577  0.24094412953111066  0.5212657217739113  1.0000
  H   H44       1.0  0.24238298182454412  0.7590558706922417  0.021265721565636168  1.0000
  H   H45       1.0  0.23803530166496897  0.4958343367769411  0.8244862344494184  1.0000
  H   H46       1.0  0.2619646978844078  0.5041656634464111  0.3244862342411433  1.0000
  H   H47       1.0  0.7619646974337845  0.9958343368886173  0.6755137655054068  1.0000
  H   H48       1.0  0.7380353012143458  0.004165663334734996  0.17551376563213172  1.0000
  H   H49       1.0  0.19594468828372127  0.5102253656294993  0.8830995390038787  1.0000
  H   H50       1.0  0.3040553112656555  0.48977463459385306  0.3830995391306037  1.0000
  H   H51       1.0  0.8040553126268654  0.010225365517823121  0.6169004609509464  1.0000
  H   H52       1.0  0.695944687833098  0.9897746347055292  0.11690046074267137  1.0000
  H   H53       1.0  0.41111427383883725  0.5799411899688605  0.8540498656177873  1.0000
  H   H54       1.0  0.08888572571053951  0.42005880955843783  0.3540498657445122  1.0000
  H   H55       1.0  0.5888857270717494  0.07994118985718426  0.6459501343370379  1.0000
  H   H56       1.0  0.911114273388214  0.920058809670114  0.1459501341287628  1.0000
  H   H57       1.0  0.8588505450517402  0.3643732228249124  0.8605876536810099  1.0000
  H   H58       1.0  0.6411494535963901  0.63562677739844  0.3605876538077349  1.0000
  H   H59       1.0  0.14114945404701335  0.8643732229365886  0.6394123462738152  1.0000
  H   H60       1.0  0.35885054550236345  0.13562677728676378  0.13941234640054023  1.0000
  H   H61       1.0  0.448222791886185  0.45595763257461336  0.08194680335181595  1.0000
  H   H62       1.0  0.051777207663191716  0.5440423676487389  0.581946803225091  1.0000
  H   H63       1.0  0.5517772090244016  0.9559576326862894  0.41805319685645914  1.0000
  H   H64       1.0  0.9482227914355618  0.044042367537062824  0.9180531967297342  1.0000
  H   H65       1.0  0.46068022253899465  0.4634559788737551  0.9373341875817929  1.0000
  H   H66       1.0  0.03931977701038213  0.5365440213495972  0.43733418770851784  1.0000
  H   H67       1.0  0.5393197765597588  0.9634559782893772  0.5626658123730323  1.0000
  H   H68       1.0  0.9606802220883713  0.036544021237921054  0.06266581216475713  1.0000
  H   H69       1.0  0.004835369465211365  0.3088537333731445  0.009138553426376855  1.0000
  H   H70       1.0  0.4951646300841654  0.6911462668502079  0.509138553634652  1.0000
  H   H71       1.0  0.9951646314453753  0.8088537334848206  0.49086144644689816  1.0000
  H   H72       1.0  0.5048353690145881  0.1911462667385317  0.9908614463201733  1.0000
  C   C1        1.0  0.8944049813697044  0.5375138890948872  0.7488546330521997  1.0000
  C   C2        1.0  0.6055950190902589  0.4624861111284651  0.24885463284392456  1.0000
  C   C3        1.0  0.10559501772904907  0.037513888983211036  0.7511453672376256  1.0000
  C   C4        1.0  0.3944049818203277  0.9624861112401412  0.2511453670293505  1.0000
  C   C5        1.0  0.8855511164548356  0.48060897303293904  0.7112484601568848  1.0000
  C   C6        1.0  0.6144488840051278  0.5193910264943593  0.21124846028360986  1.0000
  C   C7        1.0  0.11444888445575101  0.9806089731446151  0.7887515397979403  1.0000
  C   C8        1.0  0.38555111690545885  0.01939102638268312  0.2887515395896652  1.0000
  C   C9        1.0  0.07679810831324381  0.48727182968702365  0.6812573136201225  1.0000
  C   C10       1.0  0.423201891236133  0.5127281705363287  0.18125731374684745  1.0000
  C   C11       1.0  0.9232018907855096  0.9872718297986999  0.8187426863347026  1.0000
  C   C12       1.0  0.5767981078626205  0.012728170424652505  0.3187426861264276  1.0000
  C   C13       1.0  0.27001896280056686  0.5471608998502621  0.6877007666677369  1.0000
  C   C14       1.0  0.2299810367488099  0.4528391003730903  0.18770076679446196  1.0000
  C   C15       1.0  0.7299810381100198  0.047160899738585886  0.8122992332870882  1.0000
  C   C16       1.0  0.7700189623499436  0.9528391004847664  0.312299233078813  1.0000
  C   C17       1.0  0.26952714070361306  0.6031818572417791  0.7258638299497082  1.0000
  C   C18       1.0  0.2304728588457637  0.39681814298157314  0.2258638300764331  1.0000
  C   C19       1.0  0.7304728602069736  0.103181857130103  0.774136170005117  1.0000
  C   C20       1.0  0.7695271402529898  0.8968181430932493  0.274136170131842  1.0000
  C   C21       1.0  0.08264299132546764  0.600112262509983  0.7576300725292519  1.0000
  C   C22       1.0  0.4173570082239091  0.3998877370173152  0.2576300723209768  1.0000
  C   C23       1.0  0.917357007773286  0.10011226309436087  0.7423699274255732  1.0000
  C   C24       1.0  0.5826429926866775  0.8998877371289914  0.24236992755229822  1.0000
  C   C25       1.0  0.07602571117680583  0.6688947069516448  0.7966527600690136  1.0000
  C   C26       1.0  0.423974290184404  0.33110529257565346  0.29665275986073847  1.0000
  C   C27       1.0  0.9239742897337808  0.16889470683996868  0.7033472398858115  1.0000
  C   C28       1.0  0.5760257107261826  0.8311052926873296  0.2033472400125365  1.0000
  C   C29       1.0  0.869002193408312  0.7398202857003798  0.7881860090893964  1.0000
  C   C30       1.0  0.6309978070516514  0.26017971452297245  0.2881860088811213  1.0000
  C   C31       1.0  0.13099780750227466  0.23982028558870372  0.7118139912004289  1.0000
  C   C32       1.0  0.3690021920471021  0.7601797146346485  0.21181399099215376  1.0000
  C   C33       1.0  0.07289291403511301  0.8089180426114444  0.7196595833693498  1.0000
  C   C34       1.0  0.42710708551426374  0.1910819576119079  0.2196595834960748  1.0000
  C   C35       1.0  0.9271070850636405  0.3089180424997683  0.7803404165854754  1.0000
  C   C36       1.0  0.5728929135844898  0.691081957723584  0.2803404167122003  1.0000
  C   C37       1.0  0.7572705621711138  0.8136045756955801  0.6782259766829071  1.0000
  C   C38       1.0  0.7427294382888496  0.18639542452777225  0.17822597680963204  1.0000
  C   C39       1.0  0.24272943873947286  0.3136045755839039  0.8217740232719181  1.0000
  C   C40       1.0  0.25727056262173703  0.6863954246394485  0.321774023063643  1.0000
  C   C41       1.0  0.03433893365315928  0.619460393867855  0.8426042420624158  1.0000
  C   C42       1.0  0.46566106589621753  0.3805396056594432  0.34260424218914076  1.0000
  C   C43       1.0  0.9656610654455942  0.11946039445223293  0.6573957578924093  1.0000
  C   C44       1.0  0.534338933202536  0.8805396057711193  0.15739575768413422  1.0000
  C   C45       1.0  0.02853873950452494  0.6878123859768389  0.8809351896260623  1.0000
  C   C46       1.0  0.47146126004485184  0.3121876135504593  0.38093518941778726  1.0000
  C   C47       1.0  0.9714612614060616  0.18781238586516283  0.6190648103287628  1.0000
  C   C48       1.0  0.5285387390539017  0.8121876136621354  0.11906481045548772  1.0000
  C   C49       1.0  0.20817820897747485  0.8094818338357087  0.9193808388697662  1.0000
  C   C50       1.0  0.291821792383735  0.19051816638764352  0.41938083899649126  1.0000
  C   C51       1.0  0.7918217919331119  0.30948183372403265  0.5806191610850588  1.0000
  C   C52       1.0  0.7081782085268516  0.6905181664993197  0.08061916121178384  1.0000
  C   C53       1.0  0.8718402723412857  0.7455842936965159  0.95110368620983  1.0000
  C   C54       1.0  0.6281597281186777  0.2544157065268364  0.451103686001555  1.0000
  C   C55       1.0  0.12815972675746784  0.2455842935848397  0.5488963137449951  1.0000
  C   C56       1.0  0.37184027279190895  0.7544157059424587  0.04889631387172004  1.0000
  C   C57       1.0  0.8560715336898949  0.6848841918342465  0.9150495076835586  1.0000
  C   C58       1.0  0.6439284667700687  0.31511580838910574  0.4150495078102836  1.0000
  C   C59       1.0  0.1439284672206918  0.1848841917225704  0.5849504922712665  1.0000
  C   C60       1.0  0.35607153414051806  0.8151158078047279  0.08495049239799149  1.0000
  C   C61       1.0  0.23294145608868216  0.5469671747924879  0.8516486996632369  1.0000
  C   C62       1.0  0.26705854346069463  0.4530328254308644  0.35164869945496174  1.0000
  C   C63       1.0  0.7670585430100714  0.04696717468081173  0.6483513006265883  1.0000
  C   C64       1.0  0.732941457449892  0.9530328255425405  0.1483513004183133  1.0000
  C   C65       1.0  0.7340910872984179  0.3786471217957626  0.04918464273970737  1.0000
  C   C66       1.0  0.7659089131615454  0.6213528784275897  0.5491846429479824  1.0000
  C   C67       1.0  0.2659089136121687  0.8786471219074387  0.4508153571335677  1.0000
  C   C68       1.0  0.23409108593720807  0.12135287831591356  0.9508153573418427  1.0000
  C   C69       1.0  0.5288383637066751  0.4344774585304184  0.050456735167604294  1.0000
  C   C70       1.0  0.9711616349414552  0.5655225409968798  0.5504567350408793  1.0000
  C   C71       1.0  0.4711616353920784  0.9344774586420945  0.44954326470567074  1.0000
  C   C72       1.0  0.028838364157298377  0.06552254158125773  0.9495432649139458  1.0000
  C   C73       1.0  0.4350667636830606  0.46388685858359907  0.009559709823381229  1.0000
  C   C74       1.0  0.06493323586631615  0.5361131416397532  0.5095597100316563  1.0000
  C   C75       1.0  0.5649332372275261  0.9638868579992212  0.49044029004989376  1.0000
  C   C76       1.0  0.9350667632324374  0.03611314152807711  0.9904402899231688  1.0000
  C   C77       1.0  0.5375392881652976  0.43894426685110755  0.9686560716592636  1.0000
  C   C78       1.0  0.9624607122946658  0.5610557326761907  0.4686560717859886  1.0000
  C   C79       1.0  0.4624607109334559  0.9389442669627837  0.5313439282955615  1.0000
  C   C80       1.0  0.03753928861592086  0.0610557325645146  0.03134392842228647  1.0000
  C   C81       1.0  0.7442927078239199  0.3827130809610888  0.9687125282165969  1.0000
  C   C82       1.0  0.7557072926360435  0.6172869192622634  0.4687125283433219  1.0000
  C   C83       1.0  0.2557072930866668  0.8827130810727649  0.5312874717382282  1.0000
  C   C84       1.0  0.24429270646271  0.11728691915058735  0.03128747186495316  1.0000
  C   C85       1.0  0.8425849093588622  0.3517883135418493  0.009170317128315843  1.0000
  C   C86       1.0  0.6574150911011012  0.648211686681503  0.5091703173365909  1.0000
  C   C87       1.0  0.15741509155172442  0.8517883136535255  0.4908296827449592  1.0000
  C   C88       1.0  0.34258490799765234  0.14821168656982686  0.9908296826182342  1.0000
  C   C89       1.0  0.8737199441037022  0.35865745694054096  0.9260280168518858  1.0000
  C   C90       1.0  0.6262800563562612  0.6413425432828114  0.42602801664361073  1.0000
  C   C91       1.0  0.12628005499505135  0.8586574570522172  0.5739719831029393  1.0000
  C   C92       1.0  0.37371994455432545  0.14134254317113515  0.07397198322966425  1.0000
  N   N1        1.0  0.8799165347231994  0.7791924043370193  0.7432656543062506  1.0000
  N   N2        1.0  0.6200834657367639  0.22080759588633297  0.24326565409797554  1.0000
  N   N3        1.0  0.12008346437555403  0.2791924042253432  0.7567343456485744  1.0000
  N   N4        1.0  0.37991653517382273  0.720807595301955  0.25673434577529947  1.0000
  N   N5        1.0  0.6764125707045444  0.7818480870677279  0.7171760603268079  1.0000
  N   N6        1.0  0.823587429755419  0.21815191245957039  0.21717606045353294  1.0000
  N   N7        1.0  0.32358743020604225  0.2818480876521057  0.7828239396280172  1.0000
  N   N8        1.0  0.17641256934333452  0.7181519125712466  0.2828239397547422  1.0000
  N   N9        1.0  0.00010380354237862565  0.8314140803463832  0.6784408922948567  1.0000
  N   N10       1.0  0.4998961960069981  0.16858591918091512  0.17844089242158176  1.0000
  N   N11       1.0  0.999896195556375  0.331414080930761  0.8215591076599684  1.0000
  N   N12       1.0  0.5001038049035885  0.6685859192925914  0.32155910778669333  1.0000
  N   N13       1.0  0.20570153820623063  0.7523715122335383  0.8839798304211841  1.0000
  N   N14       1.0  0.29429846134314613  0.2476284879898141  0.38397983021290905  1.0000
  N   N15       1.0  0.7942984608925229  0.25237151212186204  0.616020169533641  1.0000
  N   N16       1.0  0.7057015377556074  0.7476284881014902  0.116020169660366  1.0000
  N   N17       1.0  0.05059524746470064  0.8086199157157051  0.9535205107378012  1.0000
  N   N18       1.0  0.44940475389650925  0.19138008450764715  0.45352051052952613  1.0000
  N   N19       1.0  0.949404753445886  0.308619915604029  0.5464794892170239  1.0000
  N   N20       1.0  0.5505952470140774  0.6913800846193232  0.04647948934374889  1.0000
  N   N21       1.0  0.8490864840334641  0.3524242507649074  0.09179393117798552  1.0000
  N   N22       1.0  0.6509135146146662  0.6475757494584449  0.5917939313862606  1.0000
  N   N23       1.0  0.15091351506528944  0.8524242508765836  0.4082060686952895  1.0000
  N   N24       1.0  0.3490864844840873  0.14757574934676873  0.9082060689035646  1.0000
  N   N25       1.0  0.22290685396266965  0.5254640998751013  0.01008527837319512  1.0000
  N   N26       1.0  0.2770931473985402  0.474535900348251  0.5100852785814702  1.0000
  N   N27       1.0  0.777093146947917  0.02546409976342517  0.48991472150007986  1.0000
  N   N28       1.0  0.7229068535120464  0.9745359004599271  0.9899147213733549  1.0000
  O   O1        1.0  0.3019295146584554  0.7176928753882795  0.7976361839388489  1.0000
  O   O2        1.0  0.19807048489092133  0.2823071248350728  0.2976361837305739  1.0000
  O   O3        1.0  0.6980704862521312  0.2176928752766034  0.7023638163509762  1.0000
  O   O4        1.0  0.8019295142078322  0.7823071249467489  0.20236381614270116  1.0000
  O   O5        1.0  0.041087236512969416  0.30789789320444577  0.09023688567783873  1.0000
  O   O6        1.0  0.4589127630364074  0.6921021063228524  0.5902368855511138  1.0000
  O   O7        1.0  0.9589127625857842  0.8078978933161219  0.40976311453043635  1.0000
  O   O8        1.0  0.5410872360623462  0.19210210621117635  0.9097631144037113  1.0000
  O   O9        1.0  0.7500329031192088  0.37888752562798067  0.126854969492299  1.0000
  O   O10       1.0  0.7499670973407546  0.6211124745953716  0.626854969365574  1.0000
  O   O11       1.0  0.2499670977913779  0.8788875250436028  0.3731450307159761  1.0000
  O   O12       1.0  0.250032903569832  0.1211124744836955  0.8731450305892511  1.0000
  O   O13       1.0  0.12071226467907961  0.5386765589303256  0.0465937354237067  1.0000
  O   O14       1.0  0.37928773487029716  0.46132344059697267  0.5465937356319818  1.0000
  O   O15       1.0  0.8792877344196739  0.03867655951470353  0.45340626444956833  1.0000
  O   O16       1.0  0.6207122660402894  0.9613234407086488  0.9534062643228434  1.0000
  O   O17       1.0  0.15687058134801277  0.5604588754058801  0.9741623378821436  1.0000
  O   O18       1.0  0.343129418201364  0.4395411248174722  0.47416233767386845  1.0000
  O   O19       1.0  0.8431294177507408  0.06045887529420395  0.5258376624076816  1.0000
  O   O20       1.0  0.6568705808973895  0.9395411249291483  0.025837662199406544  1.0000
  O   O21       1.0  0.7595446446353077  0.38713281027627455  0.8897092472278127  1.0000
  O   O22       1.0  0.7404553540128226  0.6128671899470777  0.38970924701953763  1.0000
  O   O23       1.0  0.2404553544634458  0.8871328103879508  0.6102907530620125  1.0000
  O   O24       1.0  0.25954464508593095  0.11286718983540155  0.11029075285373738  1.0000
  O   O25       1.0  0.07124145714721525  0.31820693207162737  0.9267263449394402  1.0000
  O   O26       1.0  0.4287585442139946  0.6817930681517249  0.4267263450661652  1.0000
  O   O27       1.0  0.9287585437633714  0.8182069321833035  0.573273655015385  1.0000
  O   O28       1.0  0.571241456696592  0.18179306804004883  0.07327365514210991  1.0000
  F   F1        1.0  0.7043494246863514  0.5303210395114097  0.7781628353747684  1.0000
  F   F2        1.0  0.795650575773612  0.4696789600158886  0.27816283550149346  1.0000
  F   F3        1.0  0.2956505762242352  0.030321040095787562  0.7218371645800568  1.0000
  F   F4        1.0  0.20434942332514158  0.9696789601275647  0.2218371647067817  1.0000
  F   F5        1.0  0.07225437694046927  0.4322864085609142  0.6436276716246807  1.0000
  F   F6        1.0  0.42774562260890747  0.5677135916624381  0.1436276714164056  1.0000
  F   F7        1.0  0.9277456221582843  0.9322864079765364  0.8563723283301444  1.0000
  F   F8        1.0  0.5722543764898461  0.06771359155076191  0.35637232845686945  1.0000
  F   F9        1.0  0.6758644676357811  0.6208124968920029  0.9141117158486919  1.0000
  F   F10       1.0  0.8241355328241823  0.3791875033313494  0.41411171597541685  1.0000
  F   F11       1.0  0.3241355332748055  0.1208124967803268  0.5858882841061333  1.0000
  F   F12       1.0  0.17586446808640435  0.8791875027469714  0.08588828389785819  1.0000
