data_image0
_chemical_formula_structural       H48C48N40Cl8
_chemical_formula_sum              "H48 C48 N40 Cl8"
_cell_length_a       16.320136143364874
_cell_length_b       15.172801528765756
_cell_length_c       6.316035225071992
_cell_angle_alpha    90.0
_cell_angle_beta     90.0
_cell_angle_gamma    90.0

_space_group_name_H-M_alt    "P 1"
_space_group_IT_number       1

loop_
  _space_group_symop_operation_xyz
  'x, y, z'

loop_
  _atom_site_type_symbol
  _atom_site_label
  _atom_site_symmetry_multiplicity
  _atom_site_fract_x
  _atom_site_fract_y
  _atom_site_fract_z
  _atom_site_occupancy
  H   H1        1.0  0.08482994429938365  0.5344829736700367  0.2500000005908773  1.0000
  H   H2        1.0  0.9151700554944371  0.4655170264113091  0.7500000001893603  1.0000
  H   H3        1.0  0.08482994429938365  0.9655170261224449  0.7500000001893603  1.0000
  H   H4        1.0  0.9151700554944371  0.03448297329982674  0.2500000005908773  1.0000
  H   H5        1.0  0.2207265318350024  0.5586647425611933  0.2500000005908773  1.0000
  H   H6        1.0  0.7792734679588184  0.44133525752015257  0.7500000001893603  1.0000
  H   H7        1.0  0.2207265318350024  0.9413352572312884  0.7500000001893603  1.0000
  H   H8        1.0  0.7792734679588184  0.058664742850057336  0.2500000005908773  1.0000
  H   H9        1.0  0.1373870248571168  0.2601623017684792  0.2500000005908773  1.0000
  H   H10       1.0  0.862612975549444  0.7398376983128665  0.7500000001893603  1.0000
  H   H11       1.0  0.1373870248571168  0.23983769860173068  0.7500000001893603  1.0000
  H   H12       1.0  0.862612975549444  0.7601623014796152  0.2500000005908773  1.0000
  H   H13       1.0  0.0026423884960991937  0.2218254284562428  0.2500000005908773  1.0000
  H   H14       1.0  0.9973576112977215  0.7781745716251028  0.7500000001893603  1.0000
  H   H15       1.0  0.0026423884960991937  0.27817457125489303  0.7500000001893603  1.0000
  H   H16       1.0  0.9973576112977215  0.7218254281673787  0.2500000005908773  1.0000
  H   H17       1.0  0.893037756056062  0.3376694139369505  0.2500000005908773  1.0000
  H   H18       1.0  0.10696224435049877  0.6623305861443952  0.7500000001893603  1.0000
  H   H19       1.0  0.893037756056062  0.1623305864332594  0.7500000001893603  1.0000
  H   H20       1.0  0.10696224435049877  0.8376694136480863  0.2500000005908773  1.0000
  H   H21       1.0  0.9356801098873404  0.49777583695938427  0.2500000005908773  1.0000
  H   H22       1.0  0.06431989051922037  0.5022241631219615  0.7500000001893603  1.0000
  H   H23       1.0  0.9356801098873404  0.002224162751751565  0.7500000001893603  1.0000
  H   H24       1.0  0.06431989051922037  0.9977758373295942  0.2500000005908773  1.0000
  H   H25       1.0  0.23823568111475124  0.7712500659693207  0.2500000005908773  1.0000
  H   H26       1.0  0.7617643186790695  0.22874993411202507  0.7500000001893603  1.0000
  H   H27       1.0  0.23823568111475124  0.7287499338231609  0.7500000001893603  1.0000
  H   H28       1.0  0.7617643186790695  0.2712500662581849  0.2500000005908773  1.0000
  H   H29       1.0  0.274753939587877  0.07473569253839979  0.2500000005908773  1.0000
  H   H30       1.0  0.7252460608186838  0.925264307542946  0.7500000001893603  1.0000
  H   H31       1.0  0.274753939587877  0.42526430717273606  0.7500000001893603  1.0000
  H   H32       1.0  0.7252460608186838  0.5747356929086097  0.2500000005908773  1.0000
  H   H33       1.0  0.5197474999893669  0.9807007052579843  0.2500000005908773  1.0000
  H   H34       1.0  0.48025249980445395  0.01929929482336147  0.7500000001893603  1.0000
  H   H35       1.0  0.5197474999893669  0.5192992951935714  0.7500000001893603  1.0000
  H   H36       1.0  0.48025249980445395  0.4807007048877744  0.2500000005908773  1.0000
  H   H37       1.0  0.5677018683307231  0.13791867349168607  0.2500000005908773  1.0000
  H   H38       1.0  0.43229813207583767  0.8620813265896597  0.7500000001893603  1.0000
  H   H39       1.0  0.5677018683307231  0.3620813262194497  0.7500000001893603  1.0000
  H   H40       1.0  0.43229813207583767  0.6379186738618959  0.2500000005908773  1.0000
  H   H41       1.0  0.4634624732021695  0.25944381283422857  0.2500000005908773  1.0000
  H   H42       1.0  0.5365375272043913  0.7405561872471172  0.7500000001893603  1.0000
  H   H43       1.0  0.4634624732021695  0.24055618753598135  0.7500000001893603  1.0000
  H   H44       1.0  0.5365375272043913  0.7594438125453644  0.2500000005908773  1.0000
  H   H45       1.0  0.313007403561204  0.21749584700910818  0.2500000005908773  1.0000
  H   H46       1.0  0.6869925962326168  0.7825041530722375  0.7500000001893603  1.0000
  H   H47       1.0  0.313007403561204  0.28250415270202767  0.7500000001893603  1.0000
  H   H48       1.0  0.6869925962326168  0.717495846720244  0.2500000005908773  1.0000
  C   C1        1.0  0.06458396674763787  0.46589390539368813  0.2500000005908773  1.0000
  C   C2        1.0  0.9354160330461829  0.5341060946876576  0.7500000001893603  1.0000
  C   C3        1.0  0.06458396674763787  0.0341060949765218  0.7500000001893603  1.0000
  C   C4        1.0  0.9354160330461829  0.9658939051048239  0.2500000005908773  1.0000
  C   C5        1.0  0.21044445707006715  0.414049075122321  0.2500000005908773  1.0000
  C   C6        1.0  0.7895555427237536  0.5859509242999507  0.7500000001893603  1.0000
  C   C7        1.0  0.21044445707006715  0.08595092458881484  0.7500000001893603  1.0000
  C   C8        1.0  0.7895555427237536  0.914049075492531  0.2500000005908773  1.0000
  C   C9        1.0  0.12252426587831891  0.3984269449869853  0.2500000005908773  1.0000
  C   C10       1.0  0.8774757339155019  0.6015730544352864  0.7500000001893603  1.0000
  C   C11       1.0  0.12252426587831891  0.1015730547241506  0.7500000001893603  1.0000
  C   C12       1.0  0.8774757339155019  0.8984269453571951  0.2500000005908773  1.0000
  C   C13       1.0  0.016519046019699165  0.2919954137408659  0.2500000005908773  1.0000
  C   C14       1.0  0.9834809537741216  0.7080045863404798  0.7500000001893603  1.0000
  C   C15       1.0  0.016519046019699165  0.20800458662934398  0.7500000001893603  1.0000
  C   C16       1.0  0.9834809537741216  0.7919954134520018  0.2500000005908773  1.0000
  C   C17       1.0  0.9569781644468495  0.356999080211433  0.2500000005908773  1.0000
  C   C18       1.0  0.04302183534697138  0.6430009198699128  0.7500000001893603  1.0000
  C   C19       1.0  0.9569781644468495  0.14300092015877688  0.7500000001893603  1.0000
  C   C20       1.0  0.04302183534697138  0.8569990799225689  0.2500000005908773  1.0000
  C   C21       1.0  0.9814579773902253  0.44508517871250003  0.2500000005908773  1.0000
  C   C22       1.0  0.018542022403595492  0.5549148213688458  0.7500000001893603  1.0000
  C   C23       1.0  0.9814579773902253  0.05491482099863586  0.7500000001893603  1.0000
  C   C24       1.0  0.018542022403595492  0.9450851784236358  0.2500000005908773  1.0000
  C   C25       1.0  0.36234179899315266  0.9264118134908087  0.2500000005908773  1.0000
  C   C26       1.0  0.6376582008006682  0.07358818659053704  0.7500000001893603  1.0000
  C   C27       1.0  0.36234179899315266  0.5735881869607469  0.7500000001893603  1.0000
  C   C28       1.0  0.6376582008006682  0.42641181312059884  0.2500000005908773  1.0000
  C   C29       1.0  0.3927717920788358  0.016309100170516063  0.2500000005908773  1.0000
  C   C30       1.0  0.6072282077149851  0.9836908999108297  0.7500000001893603  1.0000
  C   C31       1.0  0.3927717920788358  0.48369090019969385  0.7500000001893603  1.0000
  C   C32       1.0  0.6072282077149851  0.516309099881652  0.2500000005908773  1.0000
  C   C33       1.0  0.47638945237358843  0.035030485239810304  0.2500000005908773  1.0000
  C   C34       1.0  0.5236105474202323  0.9649695148415355  0.7500000001893603  1.0000
  C   C35       1.0  0.47638945237358843  0.46496951447132556  0.7500000001893603  1.0000
  C   C36       1.0  0.5236105474202323  0.5350304856100202  0.2500000005908773  1.0000
  C   C37       1.0  0.5025584932595394  0.12236708866717975  0.2500000005908773  1.0000
  C   C38       1.0  0.4974415065342815  0.877632911414166  0.7500000001893603  1.0000
  C   C39       1.0  0.5025584932595394  0.37763291170303015  0.7500000001893603  1.0000
  C   C40       1.0  0.4974415065342815  0.6223670883783157  0.2500000005908773  1.0000
  C   C41       1.0  0.44494605046246954  0.1904915558620052  0.2500000005908773  1.0000
  C   C42       1.0  0.5550539493313512  0.8095084442193405  0.7500000001893603  1.0000
  C   C43       1.0  0.44494605046246954  0.3095084445082047  0.7500000001893603  1.0000
  C   C44       1.0  0.5550539493313512  0.690491555573141  0.2500000005908773  1.0000
  C   C45       1.0  0.3624455628334248  0.16904643451225876  0.2500000005908773  1.0000
  C   C46       1.0  0.637554436960396  0.8309535649100129  0.7500000001893603  1.0000
  C   C47       1.0  0.3624455628334248  0.3309535651988771  0.7500000001893603  1.0000
  C   C48       1.0  0.637554436960396  0.6690464348824686  0.2500000005908773  1.0000
  N   N1        1.0  0.2692338079413878  0.3527244602688313  0.2500000005908773  1.0000
  N   N2        1.0  0.730766192465173  0.6472755398125144  0.7500000001893603  1.0000
  N   N3        1.0  0.2692338079413878  0.14727553944230454  0.7500000001893603  1.0000
  N   N4        1.0  0.730766192465173  0.8527244606390412  0.2500000005908773  1.0000
  N   N5        1.0  0.34110077704610614  0.39700735810587007  0.2500000005908773  1.0000
  N   N6        1.0  0.6588992233604546  0.6029926419754756  0.7500000001893603  1.0000
  N   N7        1.0  0.34110077704610614  0.10299264160526576  0.7500000001893603  1.0000
  N   N8        1.0  0.6588992233604546  0.8970073578170059  0.2500000005908773  1.0000
  N   N9        1.0  0.32815725021861203  0.48247953656555187  0.2500000005908773  1.0000
  N   N10       1.0  0.6718427495752087  0.5175204635157938  0.7500000001893603  1.0000
  N   N11       1.0  0.32815725021861203  0.017520463804658  0.7500000001893603  1.0000
  N   N12       1.0  0.6718427495752087  0.9824795362766878  0.2500000005908773  1.0000
  N   N13       1.0  0.24670073611100918  0.4939291274450374  0.2500000005908773  1.0000
  N   N14       1.0  0.7532992636828116  0.5060708726363083  0.7500000001893603  1.0000
  N   N15       1.0  0.24670073611100918  0.006070872266098436  0.7500000001893603  1.0000
  N   N16       1.0  0.7532992636828116  0.9939291278152473  0.2500000005908773  1.0000
  N   N17       1.0  0.0963707653039054  0.3137579840462893  0.2500000005908773  1.0000
  N   N18       1.0  0.9036292351026554  0.6862420160350565  0.7500000001893603  1.0000
  N   N19       1.0  0.0963707653039054  0.18624201632392062  0.7500000001893603  1.0000
  N   N20       1.0  0.9036292351026554  0.8137579837574251  0.2500000005908773  1.0000
  N   N21       1.0  0.41300201179634893  0.854975454955104  0.2500000005908773  1.0000
  N   N22       1.0  0.5869979886102118  0.1450245451262418  0.7500000001893603  1.0000
  N   N23       1.0  0.41300201179634893  0.6450245454964516  0.7500000001893603  1.0000
  N   N24       1.0  0.5869979886102118  0.35497545458489405  0.2500000005908773  1.0000
  N   N25       1.0  0.36458172883680545  0.7854827908613313  0.2500000005908773  1.0000
  N   N26       1.0  0.6354182715697553  0.21451720922001452  0.7500000001893603  1.0000
  N   N27       1.0  0.36458172883680545  0.7145172089311503  0.7500000001893603  1.0000
  N   N28       1.0  0.6354182715697553  0.2854827904911213  0.2500000005908773  1.0000
  N   N29       1.0  0.28827306700579997  0.8161672626193871  0.2500000005908773  1.0000
  N   N30       1.0  0.7117269327880209  0.18383273746195863  0.7500000001893603  1.0000
  N   N31       1.0  0.28827306700579997  0.6838327371730946  0.7500000001893603  1.0000
  N   N32       1.0  0.7117269327880209  0.3161672629082513  0.2500000005908773  1.0000
  N   N33       1.0  0.28287220581042105  0.903127568367704  0.2500000005908773  1.0000
  N   N34       1.0  0.7171277939833997  0.09687243171364177  0.7500000001893603  1.0000
  N   N35       1.0  0.28287220581042105  0.5968724314247776  0.7500000001893603  1.0000
  N   N36       1.0  0.7171277939833997  0.4031275686565681  0.2500000005908773  1.0000
  N   N37       1.0  0.3387956185799315  0.08409124824977454  0.2500000005908773  1.0000
  N   N38       1.0  0.6612043812138892  0.9159087518315712  0.7500000001893603  1.0000
  N   N39       1.0  0.3387956185799315  0.4159087521204353  0.7500000001893603  1.0000
  N   N40       1.0  0.6612043812138892  0.5840912479609104  0.2500000005908773  1.0000
  Cl  Cl1       1.0  0.15751186677723342  0.12491378183565906  0.2500000005908773  1.0000
  Cl  Cl2       1.0  0.8424881330165874  0.8750862182456867  0.7500000001893603  1.0000
  Cl  Cl3       1.0  0.15751186677723342  0.37508621787547675  0.7500000001893603  1.0000
  Cl  Cl4       1.0  0.8424881330165874  0.624913782205869  0.2500000005908773  1.0000
  Cl  Cl5       1.0  0.1640365556073136  0.6697613641576875  0.2500000005908773  1.0000
  Cl  Cl6       1.0  0.8359634441865073  0.33023863592365826  0.7500000001893603  1.0000
  Cl  Cl7       1.0  0.1640365556073136  0.830238635634794  0.7500000001893603  1.0000
  Cl  Cl8       1.0  0.8359634441865073  0.16976136444655168  0.2500000005908773  1.0000
