data_image0
_chemical_formula_structural       H32C64N32S32Cl12
_chemical_formula_sum              "H32 C64 N32 S32 Cl12"
_cell_length_a       9.542231845082643
_cell_length_b       14.0399354206828
_cell_length_c       17.753186641088146
_cell_angle_alpha    90.0
_cell_angle_beta     96.7829181537669
_cell_angle_gamma    90.0

_space_group_name_H-M_alt    "P 1"
_space_group_IT_number       1

loop_
  _space_group_symop_operation_xyz
  'x, y, z'

loop_
  _atom_site_type_symbol
  _atom_site_label
  _atom_site_symmetry_multiplicity
  _atom_site_fract_x
  _atom_site_fract_y
  _atom_site_fract_z
  _atom_site_occupancy
  H   H1        1.0  0.26430396881672624  0.07718656016063762  0.2527526163988621  1.0000
  H   H2        1.0  0.7643039684082071  0.42281343981504604  0.7527526168127755  1.0000
  H   H3        1.0  0.7356960311864008  0.9228134397907297  0.747247383300017  1.0000
  H   H4        1.0  0.23569603170940318  0.5771865601363213  0.24724738345332642  1.0000
  H   H5        1.0  0.3953829290563931  0.30289034618602156  0.11218806318952165  1.0000
  H   H6        1.0  0.8953829295825225  0.19710965450191606  0.6121880630417101  1.0000
  H   H7        1.0  0.6046170710612172  0.6971096544775996  0.8878119370765802  1.0000
  H   H8        1.0  0.10461707042060452  0.8028903461617053  0.3878119366571689  1.0000
  H   H9        1.0  0.24853515716730162  0.8967845287558791  0.7553356130153649  1.0000
  H   H10       1.0  0.7485351573684543  0.6032154711711719  0.25533561318665265  1.0000
  H   H11       1.0  0.7514648428358255  0.1032154711954882  0.24466438668351415  1.0000
  H   H12       1.0  0.2514648426346727  0.39678452878019543  0.7446643865122263  1.0000
  H   H13       1.0  0.09116296124239473  0.3593520118737579  0.2670543902329237  1.0000
  H   H14       1.0  0.5911629617685241  0.14064798810192572  0.7670543900851122  1.0000
  H   H15       1.0  0.9088370378260838  0.6406479880776094  0.7329456100276803  1.0000
  H   H16       1.0  0.4088370382346029  0.8593520118494415  0.23294560961376684  1.0000
  H   H17       1.0  0.06630275219136993  0.1760944374685566  0.7674268284837784  1.0000
  H   H18       1.0  0.5663027513433908  0.32390556250712704  0.2674268286495683  1.0000
  H   H19       1.0  0.9336972479262403  0.8239055624828108  0.23257317178232342  1.0000
  H   H20       1.0  0.4336972487742195  0.6760944374442402  0.7325731716165337  1.0000
  H   H21       1.0  0.3792430681953798  0.12488462570967644  0.6164487368316803  1.0000
  H   H22       1.0  0.8792430683965323  0.3751153742660073  0.11644873700296798  1.0000
  H   H23       1.0  0.6207569318077472  0.875115374241691  0.38355126286719887  1.0000
  H   H24       1.0  0.12075693172107782  0.6248846256853601  0.8835512632631338  1.0000
  H   H25       1.0  0.2368012696969256  0.4152299312867125  0.1672641110240906  1.0000
  H   H26       1.0  0.7368012703375382  0.08477006868897116  0.667264111443502  1.0000
  H   H27       1.0  0.7631987303062014  0.5847700686646549  0.8327358886747884  1.0000
  H   H28       1.0  0.263198729780072  0.9152299312623962  0.3327358888225999  1.0000
  H   H29       1.0  0.21387847540713575  0.23473124777661733  0.669975211204486  1.0000
  H   H30       1.0  0.7138784754938052  0.26526875291132035  0.16997521080855083  1.0000
  H   H31       1.0  0.7861215247104745  0.765268752887004  0.330024789061616  1.0000
  H   H32       1.0  0.2861215245093219  0.734731247752301  0.8300247888903282  1.0000
  C   C1        1.0  0.08178127908110569  0.1816271637719531  0.3233383754028287  1.0000
  C   C2        1.0  0.581781279607235  0.3183728362037306  0.8233383752550172  1.0000
  C   C3        1.0  0.9182187210365047  0.8183728361794141  0.6766616248632732  1.0000
  C   C4        1.0  0.41821872051037523  0.6816271637476367  0.17666162501108473  1.0000
  C   C5        1.0  0.058639917463257925  0.9997963387581835  0.8240492603064731  1.0000
  C   C6        1.0  0.5586399176644107  0.5002036611688675  0.3240492604777609  1.0000
  C   C7        1.0  0.9413600825398691  0.00020366119318381736  0.17595073939240594  1.0000
  C   C8        1.0  0.4413600824531997  0.49979633878249985  0.6759507397883411  1.0000
  C   C9        1.0  0.25950611808658536  0.15142580761932067  0.23482680499607428  1.0000
  C   C10       1.0  0.7595061186127148  0.34857419235636294  0.7348268048482629  1.0000
  C   C11       1.0  0.7404938820310248  0.8485741923320467  0.7651731952700276  1.0000
  C   C12       1.0  0.2404938815048955  0.6514258075950043  0.2651731954178391  1.0000
  C   C13       1.0  0.34271006026571094  0.18353306356409746  0.18018257743274618  1.0000
  C   C14       1.0  0.8427100609063236  0.3164669364115862  0.6801825778521575  1.0000
  C   C15       1.0  0.657289939737416  0.8164669363872699  0.819817422266133  1.0000
  C   C16       1.0  0.1572899392112867  0.6835330635397812  0.31981742241394434  1.0000
  C   C17       1.0  0.4188436846569879  0.9397329335691739  0.6471557677548433  1.0000
  C   C18       1.0  0.9188436838090087  0.5602670663578772  0.14715576792063312  1.0000
  C   C19       1.0  0.5811563153461391  0.06026706638219349  0.35284423194403575  1.0000
  C   C20       1.0  0.08115631619411826  0.4397329335934902  0.852844231778246  1.0000
  C   C21       1.0  0.32601030792134267  0.004423018919910386  0.6833398905840038  1.0000
  C   C22       1.0  0.8260103081224953  0.49557698105577325  0.18333989075529153  1.0000
  C   C23       1.0  0.6739896920817845  0.995576981031457  0.3166601091148753  1.0000
  C   C24       1.0  0.17398969188063174  0.504423018895594  0.8166601089435875  1.0000
  C   C25       1.0  0.4361078073837895  0.11792312930165046  0.1451122088979701  1.0000
  C   C26       1.0  0.9361078079099189  0.38207687067403323  0.6451122087501587  1.0000
  C   C27       1.0  0.563892191684689  0.8820768706497168  0.8548877913626338  1.0000
  C   C28       1.0  0.06389219209320814  0.6179231292773342  0.3548877909487204  1.0000
  C   C29       1.0  0.3337205745767871  0.27887317374922693  0.15633540690286665  1.0000
  C   C30       1.0  0.8337205740537847  0.2211268262264567  0.6563354067495573  1.0000
  C   C31       1.0  0.66627942542634  0.7211268262021403  0.8436645927960125  1.0000
  C   C32       1.0  0.1662794259493423  0.7788731737249106  0.34366459294932183  1.0000
  C   C33       1.0  0.2419963552152463  0.9710436537988699  0.7373255989686713  1.0000
  C   C34       1.0  0.741996355416399  0.5289563461281811  0.23732559913995904  1.0000
  C   C35       1.0  0.7580036447878808  0.028956346152497373  0.2626744007302078  1.0000
  C   C36       1.0  0.2580036447012113  0.47104365382318625  0.7626744011261428  1.0000
  C   C37       1.0  0.1687567906877889  0.21499457793468982  0.26589731532222055  1.0000
  C   C38       1.0  0.6687567912139183  0.2850054220409939  0.765897315174409  1.0000
  C   C39       1.0  0.8312432094298213  0.7850054220166776  0.7341026849438814  1.0000
  C   C40       1.0  0.33124320890369197  0.7149945779103735  0.2341026850916929  1.0000
  C   C41       1.0  0.14813495425327483  0.03317461199385975  0.7674808760170577  1.0000
  C   C42       1.0  0.6481349543399442  0.46682538798182394  0.26748087562112255  1.0000
  C   C43       1.0  0.8518650458643354  0.9668253879575076  0.23251912424904425  1.0000
  C   C44       1.0  0.3518650456631828  0.5331746119695434  0.7325191240777564  1.0000
  C   C45       1.0  0.1613014076835162  0.31052220678861037  0.24217509665199896  1.0000
  C   C46       1.0  0.6613014082096457  0.18947779318707328  0.7421750965041874  1.0000
  C   C47       1.0  0.8386985924340942  0.6894777931627569  0.7578249036141029  1.0000
  C   C48       1.0  0.3386985919079647  0.8105222067642941  0.25782490376191447  1.0000
  C   C49       1.0  0.139419293877847  0.12852852210001411  0.7436155324773814  1.0000
  C   C50       1.0  0.6394192940789997  0.3714714778756696  0.2436155326486692  1.0000
  C   C51       1.0  0.86058070612528  0.8714714785636072  0.2563844672214976  1.0000
  C   C52       1.0  0.3605807060386106  0.6285285220756978  0.7563844676174327  1.0000
  C   C53       1.0  0.316231036300973  0.09992881647683309  0.6597529527030032  1.0000
  C   C54       1.0  0.8162310354529938  0.40007118349885057  0.15975295286879296  1.0000
  C   C55       1.0  0.683768963702154  0.9000711834745342  0.34024704699587593  1.0000
  C   C56       1.0  0.18376896361548462  0.5999288164525167  0.840247047391811  1.0000
  C   C57       1.0  0.24352819646577434  0.3418904329808205  0.18739684560151262  1.0000
  C   C58       1.0  0.743528197106387  0.1581095669948632  0.687396846020924  1.0000
  C   C59       1.0  0.7564718035373527  0.6581095669705469  0.8126031540973664  1.0000
  C   C60       1.0  0.25647180301122324  0.8418904329565041  0.3126031542451779  1.0000
  C   C61       1.0  0.22317029408926486  0.1614604983624458  0.6899908240922317  1.0000
  C   C62       1.0  0.7231702942904176  0.33853950161323787  0.18999082426351943  1.0000
  C   C63       1.0  0.7768297059138621  0.8385395023011756  0.3100091756066474  1.0000
  C   C64       1.0  0.2768297058271927  0.6614604983381295  0.8100091760025825  1.0000
  N   N1        1.0  0.40642730589954285  0.8442852281597976  0.6533964681179277  1.0000
  N   N2        1.0  0.9064273061006956  0.6557147717672535  0.15339646828921558  1.0000
  N   N3        1.0  0.5935726942180672  0.1557147717915698  0.346603532148174  1.0000
  N   N4        1.0  0.09357269401691466  0.3442852281841139  0.8466035319768863  1.0000
  N   N5        1.0  0.0799563419535724  0.9132782620289585  0.856508231138458  1.0000
  N   N6        1.0  0.579956342154725  0.5867217378980926  0.35650823130974574  1.0000
  N   N7        1.0  0.9200436580495546  0.08672173792240893  0.1434917685604211  1.0000
  N   N8        1.0  0.42004365796288523  0.4132782620532747  0.6434917689563562  1.0000
  N   N9        1.0  0.532081225473577  0.15331072155995143  0.10299665286126697  1.0000
  N   N10       1.0  0.03208122527242427  0.34668927841573227  0.6029966526899792  1.0000
  N   N11       1.0  0.4679187746440334  0.846689278391416  0.897003347404835  1.0000
  N   N12       1.0  0.9679187747307028  0.6533107215356351  0.39700334700889983  1.0000
  N   N13       1.0  0.5141707154819362  0.9757129110308815  0.604544758834499  1.0000
  N   N14       1.0  0.014170715890455187  0.5242870896084233  0.10454475842058555  1.0000
  N   N15       1.0  0.4858292846356742  0.024287089632739692  0.39545524143160293  1.0000
  N   N16       1.0  0.9858292841126718  0.475712911055198  0.8954552412782936  1.0000
  N   N17       1.0  0.9873636642540279  0.239786837269959  0.35059930416020024  1.0000
  N   N18       1.0  0.48736366405287534  0.26021316270572464  0.8505993039889125  1.0000
  N   N19       1.0  0.01263633586358227  0.7602131626814083  0.6494006961059017  1.0000
  N   N20       1.0  0.5126363360647349  0.7397868372456426  0.14940069627718944  1.0000
  N   N21       1.0  0.9563352403861611  0.05660600823200577  0.8452688256836214  1.0000
  N   N22       1.0  0.4563352398600317  0.4433939917436779  0.3452688258314327  1.0000
  N   N23       1.0  0.043664759616965955  0.9433939917193616  0.1547311740152578  1.0000
  N   N24       1.0  0.5436647601430953  0.5566060082076895  0.6547311738674463  1.0000
  N   N25       1.0  0.42426232136755154  0.022807385533147068  0.15397034600150197  1.0000
  N   N26       1.0  0.924262321893681  0.4771926144425366  0.6539703458536905  1.0000
  N   N27       1.0  0.575737677700927  0.9771926144182203  0.8460296542591019  1.0000
  N   N28       1.0  0.07573767822392931  0.5228073855088308  0.3460296544124114  1.0000
  N   N29       1.0  0.09759276597799105  0.09204950673036277  0.35075148052109095  1.0000
  N   N30       1.0  0.5975927654549887  0.4079504932453209  0.8507514803677816  1.0000
  N   N31       1.0  0.9024072341396192  0.9079504932210045  0.649248519745011  1.0000
  N   N32       1.0  0.4024072346626215  0.5920495067060465  0.1492485198983204  1.0000
  S   S1        1.0  0.5283715472447452  0.9600738853928761  0.10802257888017958  1.0000
  S   S2        1.0  0.028371548092724366  0.5399261145341748  0.6080225787143897  1.0000
  S   S3        1.0  0.471628452872865  0.03992611455849121  0.8919774213859224  1.0000
  S   S4        1.0  0.9716284520248858  0.46007388541719246  0.3919774215517121  1.0000
  S   S5        1.0  0.6014382041986364  0.9001139692838703  0.5617241274481183  1.0000
  S   S6        1.0  0.10143820367250686  0.5998860306431807  0.06172412759592972  1.0000
  S   S7        1.0  0.3985617958044908  0.09988603066749703  0.4382758722507608  1.0000
  S   S8        1.0  0.8985617963306202  0.40011396930818666  0.9382758721029492  1.0000
  S   S9        1.0  0.6243248614834805  0.07722945993061184  0.06309426158311045  1.0000
  S   S10       1.0  0.12432486139681106  0.4227705400450718  0.5630942619790456  1.0000
  S   S11       1.0  0.3756751385196465  0.9227705407330095  0.9369057381157686  1.0000
  S   S12       1.0  0.8756751387207992  0.5772294599062955  0.4369057382870563  1.0000
  S   S13       1.0  0.8697910438865581  0.01483494786544187  0.9095282101866717  1.0000
  S   S14       1.0  0.3697910444095604  0.4851650521102418  0.4095282103399811  1.0000
  S   S15       1.0  0.13020895518192047  0.9851650520859254  0.09047179007393233  1.0000
  S   S16       1.0  0.6302089557080498  0.5148349478411255  0.5904717899261208  1.0000
  S   S17       1.0  0.9006654558847578  0.19424884575910442  0.41337262304750416  1.0000
  S   S18       1.0  0.4006654557980883  0.3057511542165792  0.9133726234434393  1.0000
  S   S19       1.0  0.09933454411836926  0.805751154192263  0.5866273766513749  1.0000
  S   S20       1.0  0.5993345443195219  0.6942488457347881  0.08662737682266264  1.0000
  S   S21       1.0  0.9807536825766539  0.8874293739019252  0.9205971379748663  1.0000
  S   S22       1.0  0.4807536820505246  0.6125706267373798  0.42059713812267796  1.0000
  S   S23       1.0  0.019246317426473047  0.11257062604944211  0.07940286172401266  1.0000
  S   S24       1.0  0.5192463180670857  0.3874293739262416  0.5794028621434241  1.0000
  S   S25       1.0  0.9980024380567466  0.06320197233192443  0.4132808097892764  1.0000
  S   S26       1.0  0.4980024378555939  0.43679802764375925  0.9132808096179885  1.0000
  S   S27       1.0  0.001997562060863732  0.9367980276194429  0.5867191904768256  1.0000
  S   S28       1.0  0.5019975622620163  0.563201972307608  0.08671919064811326  1.0000
  S   S29       1.0  0.5058876272397422  0.7833366686144728  0.6044457335096377  1.0000
  S   S30       1.0  0.005887627762744601  0.7166633313125782  0.10444573366294711  1.0000
  S   S31       1.0  0.4941123728778681  0.21666333133689458  0.39555426675646427  1.0000
  S   S32       1.0  0.9941123723548657  0.2833366686387891  0.8955542666031548  1.0000
  Cl  Cl1       1.0  0.7816470324270924  0.06350337756444181  0.5117123023663697  1.0000
  Cl  Cl2       1.0  0.2816470329500948  0.4364966224112418  0.011712302519679118  1.0000
  Cl  Cl3       1.0  0.21835296769051782  0.9364966223869255  0.4882876978997323  1.0000
  Cl  Cl4       1.0  0.7183529671675154  0.5635033775401255  0.9882876977464227  1.0000
  Cl  Cl5       1.0  0.7609997937917611  0.8932536015461306  0.024578600963516675  1.0000
  Cl  Cl6       1.0  0.2609997935906084  0.6067463983809203  0.524578600792229  1.0000
  Cl  Cl7       1.0  0.23900020632584923  0.10674639840523666  0.9754213993025853  1.0000
  Cl  Cl8       1.0  0.7390002064125186  0.393253601570447  0.4754213989066502  1.0000
  Cl  Cl9       1.0  0.7222342428950755  0.7303834264717219  0.5123799926912438  1.0000
  Cl  Cl10      1.0  0.2222342434180779  0.769616573455329  0.012379992844553264  1.0000
  Cl  Cl11      1.0  0.2777657571080515  0.2696165734796454  0.48762000700763525  1.0000
  Cl  Cl12      1.0  0.7777657565850491  0.23038342649603827  0.9876200068543256  1.0000
