data_image0
_chemical_formula_structural       H59C78N25
_chemical_formula_sum              "H59 C78 N25"
_cell_length_a       7.714723145338657
_cell_length_b       13.304275495410765
_cell_length_c       16.40991654133405
_cell_angle_alpha    81.14444685607202
_cell_angle_beta     81.04318994487839
_cell_angle_gamma    83.90804897572177

_space_group_name_H-M_alt    "P 1"
_space_group_IT_number       1

loop_
  _space_group_symop_operation_xyz
  'x, y, z'

loop_
  _atom_site_type_symbol
  _atom_site_label
  _atom_site_symmetry_multiplicity
  _atom_site_fract_x
  _atom_site_fract_y
  _atom_site_fract_z
  _atom_site_occupancy
  H   H1        1.0  0.5467001459972495  0.418626950338422  0.7003227288552533  1.0000
  H   H2        1.0  0.40521716712920486  0.26178437669307447  0.7117359536515366  1.0000
  H   H3        1.0  0.03981301218464546  0.5937849531772724  0.6897390742230064  1.0000
  H   H4        1.0  0.8979103264972442  0.43685612420253284  0.703385325192853  1.0000
  H   H5        1.0  0.5854787437272386  0.3858466849169972  0.8995424712364721  1.0000
  H   H6        1.0  0.46074799684485024  0.22402618851625242  0.9070707160539108  1.0000
  H   H7        1.0  0.06405819587274866  0.5450928128104389  0.8941885786028327  1.0000
  H   H8        1.0  0.9383203247407651  0.3824137343587651  0.9052758648433898  1.0000
  H   H9        1.0  0.14869968735483846  0.4449494519754304  0.502357550285198  1.0000
  H   H10       1.0  0.9632209709135986  0.6037701364340257  0.48518284616282936  1.0000
  H   H11       1.0  0.6876761620172622  0.2738748667013528  0.5264267974503696  1.0000
  H   H12       1.0  0.5033911857940216  0.4325482096233495  0.5067335625618208  1.0000
  H   H13       1.0  0.400396435834348  0.5630624463708997  0.2916985359240853  1.0000
  H   H14       1.0  0.26230676209727904  0.40511745772877245  0.30384093509028065  1.0000
  H   H15       1.0  0.8920557936278126  0.7353497473813263  0.27782930553497687  1.0000
  H   H16       1.0  0.7542321724582443  0.5773182604841381  0.2887002925857813  1.0000
  H   H17       1.0  0.35301512249623596  0.6153825644185612  0.09123652540573593  1.0000
  H   H18       1.0  0.22912207109320992  0.45263564410260065  0.10042163199395358  1.0000
  H   H19       1.0  0.8294902749401745  0.7724281358661188  0.0901415396205617  1.0000
  H   H20       1.0  0.7069795332063139  0.6106648339114835  0.09456799347992124  1.0000
  H   H21       1.0  0.8725999923345255  0.04176030759378873  0.7899957071058241  1.0000
  H   H22       1.0  0.6681372365017663  0.05335750512767597  0.8563731713476345  1.0000
  H   H23       1.0  0.5046219596112844  0.05020498155363858  0.7467630454868776  1.0000
  H   H24       1.0  0.7061686447806869  0.07026148645691042  0.6784761635118066  1.0000
  H   H25       1.0  0.9095335112617028  0.7679621639761718  0.8050925335281569  1.0000
  H   H26       1.0  0.027517334869842508  0.8785142827562898  0.7747815298560751  1.0000
  H   H27       1.0  0.9053357658152981  0.9217529928804978  0.6500017762421396  1.0000
  H   H28       1.0  0.8252033561027818  0.7974275372396956  0.6711025789568554  1.0000
  H   H29       1.0  0.5099117629123611  0.8977824081381879  0.9002848108239817  1.0000
  H   H30       1.0  0.6288268805849155  0.7761312328915891  0.890409331107955  1.0000
  H   H31       1.0  0.5447481485486868  0.7767730205291952  0.7584099775761225  1.0000
  H   H32       1.0  0.39701814029583926  0.885834620988561  0.7784035696070641  1.0000
  H   H33       1.0  0.8814354591337638  0.8136829663010641  0.9437142825286856  1.0000
  H   H34       1.0  0.9735053563660996  0.933042158164947  0.9077822644423634  1.0000
  H   H35       1.0  0.7561234974319825  0.9297061253939574  0.9672062009257605  1.0000
  H   H36       1.0  0.43156289954277915  0.9636219096143928  0.6374251850423848  1.0000
  H   H37       1.0  0.6492573794031518  0.9739694571460378  0.5795019415596996  1.0000
  H   H38       1.0  0.5656948697588241  0.8511296924557368  0.6104683935915958  1.0000
  H   H39       1.0  0.4813094501609393  0.2167159929924865  0.31747890846987004  1.0000
  H   H40       1.0  0.38684875804008884  0.0989852507586119  0.357060434868874  1.0000
  H   H41       1.0  0.26631128763983164  0.10599368860666535  0.23317860046444217  1.0000
  H   H42       1.0  0.35909736315011603  0.22335281791762643  0.19369265564856614  1.0000
  H   H43       1.0  0.8937109402116019  0.0964091665426082  0.22050675269167114  1.0000
  H   H44       1.0  0.77414842446893  0.21483218416984173  0.2398282641241927  1.0000
  H   H45       1.0  0.6500765665464202  0.2239419054845685  0.11661867818912608  1.0000
  H   H46       1.0  0.7745490737707583  0.10637460236901544  0.09741302672921257  1.0000
  H   H47       1.0  0.553167629892386  0.9391308976767405  0.33204478557517864  1.0000
  H   H48       1.0  0.7675519521963151  0.9401293115373488  0.27305237123182796  1.0000
  H   H49       1.0  0.6436419786113781  0.9459467366191581  0.15021439249291735  1.0000
  H   H50       1.0  0.42851756296277926  0.9492508954197592  0.20804932406776688  1.0000
  H   H51       1.0  0.7258101759588877  0.1569746933623549  0.38796850202743605  1.0000
  H   H52       1.0  0.6378273042675068  0.035602286567073926  0.4245100851001567  1.0000
  H   H53       1.0  0.8567969635450853  0.04155181322219246  0.36614542776161435  1.0000
  H   H54       1.0  0.4113683755364797  0.17740905356572367  0.057164245876376044  1.0000
  H   H55       1.0  0.5352565086622725  0.05939777111018315  0.03772895240207226  1.0000
  H   H56       1.0  0.31711018123063367  0.05936772931944025  0.09641804325169867  1.0000
  H   H57       1.0  0.08364189868079985  0.8128303671141196  0.5472851122309702  1.0000
  H   H58       1.0  0.9735947522761706  0.9144687894401734  0.4840691096333557  1.0000
  H   H59       1.0  0.09982514169074527  0.8120063506356872  0.4379775160375821  1.0000
  C   C1        1.0  0.5706772498584015  0.6170424986533365  0.6839853158369862  1.0000
  C   C2        1.0  0.3885938298614207  0.6119360698164488  0.6868132464363226  1.0000
  C   C3        1.0  0.30573947466023793  0.5193382035064128  0.6943882960523681  1.0000
  C   C4        1.0  0.40484443543557724  0.4229265555507203  0.7005828663409612  1.0000
  C   C5        1.0  0.32450373116014475  0.33412049250560144  0.7071905435696599  1.0000
  C   C6        1.0  0.13944464727647557  0.3360816893455997  0.7091730408672485  1.0000
  C   C7        1.0  0.05504890353277238  0.24402806157295318  0.716919377298872  1.0000
  C   C8        1.0  0.145229127017324  0.1461100796686078  0.7193238374483027  1.0000
  C   C9        1.0  0.2905166161040952  0.7070596554530979  0.6769795770347323  1.0000
  C   C10       1.0  0.1205797511253376  0.5214787939049085  0.6949876625889015  1.0000
  C   C11       1.0  0.040023130046181944  0.43278608912473826  0.7024284602220205  1.0000
  C   C12       1.0  0.8711845680533071  0.24529736760022658  0.7225558664278142  1.0000
  C   C13       1.0  0.5891721668173217  0.5815575235950411  0.889429112785606  1.0000
  C   C14       1.0  0.40828397845982184  0.5739053321869817  0.889703914198075  1.0000
  C   C15       1.0  0.3353994332842998  0.47883795206783314  0.8959446676961832  1.0000
  C   C16       1.0  0.44406215753895895  0.3850453430381667  0.900551631399027  1.0000
  C   C17       1.0  0.37309841776303904  0.2938579606795817  0.905361534775094  1.0000
  C   C18       1.0  0.18834246952760536  0.2898019258989248  0.9076670063523771  1.0000
  C   C19       1.0  0.11445496866765682  0.1945160412621236  0.915423665895169  1.0000
  C   C20       1.0  0.22320652124084028  0.10286885468576742  0.9161226241787981  1.0000
  C   C21       1.0  0.3021728536729826  0.6671394683846699  0.886386536944563  1.0000
  C   C22       1.0  0.15105132793014206  0.4749359112231258  0.8976238588847119  1.0000
  C   C23       1.0  0.07993705712326336  0.38335429818848193  0.9037438183052634  1.0000
  C   C24       1.0  0.9316516873185728  0.1861116156647594  0.9262830951785047  1.0000
  C   C25       1.0  0.22768358551427634  0.24888865250961367  0.5178647038332512  1.0000
  C   C26       1.0  0.04232674502094311  0.25327639224229337  0.5239275848644555  1.0000
  C   C27       1.0  0.9345891437552286  0.34611891870887374  0.5151388929496655  1.0000
  C   C28       1.0  0.00753826672267524  0.44246639462708753  0.5039262424747133  1.0000
  C   C29       1.0  0.9030225086197099  0.5318192037796404  0.4939174992390827  1.0000
  C   C30       1.0  0.7175944962530759  0.5314502063670467  0.49379749630942255  1.0000
  C   C31       1.0  0.61023266613288  0.6237561517868802  0.48127095890051846  1.0000
  C   C32       1.0  0.6782271195178987  0.7201787445754861  0.46947200599160255  1.0000
  C   C33       1.0  0.9688480422582335  0.15836492135629004  0.5371387370254342  1.0000
  C   C34       1.0  0.7484184522524723  0.34574834540121047  0.5172507909073548  1.0000
  C   C35       1.0  0.644066500147472  0.43510642453772397  0.5064682415051939  1.0000
  C   C36       1.0  0.4277294595728753  0.6254838067421277  0.4794968873116099  1.0000
  C   C37       1.0  0.42321880541223855  0.7535860436793694  0.2756426825502732  1.0000
  C   C38       1.0  0.2402925413252437  0.7550130041779469  0.27707965142374913  1.0000
  C   C39       1.0  0.1579767110896583  0.662529615634219  0.28344260542967925  1.0000
  C   C40       1.0  0.2589888291651352  0.5662866988630179  0.29093664075823905  1.0000
  C   C41       1.0  0.18073135698468107  0.47709757432243327  0.2977071076769435  1.0000
  C   C42       1.0  0.996187438498651  0.478218536435024  0.29712860030855553  1.0000
  C   C43       1.0  0.9137688295430131  0.38515767316408817  0.3079854248137543  1.0000
  C   C44       1.0  0.1482253876817789  0.8523113817208031  0.2750228169445187  1.0000
  C   C45       1.0  0.9741208097399942  0.6635019293540315  0.28293274073908603  1.0000
  C   C46       1.0  0.8957289567171068  0.5740249797581395  0.2893363751146901  1.0000
  C   C47       1.0  0.7313027844418388  0.3823289777846296  0.3099340544094888  1.0000
  C   C48       1.0  0.008694577464137355  0.2898533360804902  0.3232352561525488  1.0000
  C   C49       1.0  0.3580424048804703  0.8117534585571544  0.07304404317704365  1.0000
  C   C50       1.0  0.17538612625396185  0.8030817580788988  0.08277680370454464  1.0000
  C   C51       1.0  0.1025772158663766  0.7076048424312723  0.08908739270682486  1.0000
  C   C52       1.0  0.21158887707397667  0.6142877991306371  0.09222082218907902  1.0000
  C   C53       1.0  0.14140434643121694  0.522530864766433  0.09732086172644049  1.0000
  C   C54       1.0  0.9573915419364266  0.5181060209358562  0.09830711280108229  1.0000
  C   C55       1.0  0.8849415452788278  0.4228851074015857  0.10392897297789797  1.0000
  C   C56       1.0  0.9908969167928561  0.32963915902466767  0.10893984314055288  1.0000
  C   C57       1.0  0.0659736054088393  0.8945132351537101  0.08281671217857901  1.0000
  C   C58       1.0  0.9180706679111481  0.7029936549846907  0.0907241506072833  1.0000
  C   C59       1.0  0.8482614721181031  0.6117434547672739  0.09394417264993961  1.0000
  C   C60       1.0  0.7044795910907894  0.41573456760250915  0.1029029206187214  1.0000
  C   C61       1.0  0.7423407015097471  0.01287265850576646  0.8071044849669038  1.0000
  C   C62       1.0  0.6426864849693497  0.021663932997341425  0.7323128193585363  1.0000
  C   C63       1.0  0.8986534997926756  0.8491888374845491  0.7797990507323411  1.0000
  C   C64       1.0  0.8283580735961822  0.8690622231810038  0.6958626213839508  1.0000
  C   C65       1.0  0.6021282362566082  0.8536281855052399  0.8589297729407981  1.0000
  C   C66       1.0  0.5338260375890184  0.8534226003877605  0.7760164608096437  1.0000
  C   C67       1.0  0.8517825059635334  0.8945013280664332  0.9213433097565035  1.0000
  C   C68       1.0  0.5656801193224253  0.9273814903241784  0.6274192514875863  1.0000
  C   C69       1.0  0.46628414610101454  0.14024147913639345  0.3038584499450396  1.0000
  C   C70       1.0  0.3875434971353978  0.14486396422452444  0.22289708281523565  1.0000
  C   C71       1.0  0.7638605779233606  0.13897290132597598  0.22420081534103667  1.0000
  C   C72       1.0  0.6845732652159873  0.14515035096320553  0.14327502324609323  1.0000
  C   C73       1.0  0.6340084967133115  0.9778616914183523  0.27801011959927585  1.0000
  C   C74       1.0  0.5543666387182354  0.9832700739650971  0.19722871586687915  1.0000
  C   C75       1.0  0.7233541680956896  0.07897058762199805  0.37511084693356117  1.0000
  C   C76       1.0  0.4395441259387617  0.0972289147772354  0.08200609383475774  1.0000
  C   C77       1.0  0.24554231369449175  0.9172090260686112  0.47453222815819707  1.0000
  C   C78       1.0  0.09157862762968529  0.8610576965197126  0.48645730463877807  1.0000
  N   N1        1.0  0.7210176394651715  0.627745594896501  0.6806923964141519  1.0000
  N   N2        1.0  0.21220364171629139  0.06240325424679152  0.7211434120868724  1.0000
  N   N3        1.0  0.21041080853838798  0.7870954377035508  0.6684787381037626  1.0000
  N   N4        1.0  0.7180529414969986  0.2443189093488003  0.7271736537477614  1.0000
  N   N5        1.0  0.7387456579128497  0.5920825864272129  0.8883347465623191  1.0000
  N   N6        1.0  0.3176798228418734  0.027796134402795464  0.9155909374766243  1.0000
  N   N7        1.0  0.21720425472736157  0.7458500380897629  0.883143804248607  1.0000
  N   N8        1.0  0.7795845388297742  0.17781165003985866  0.9361534675970035  1.0000
  N   N9        1.0  0.3812108203359942  0.24384097351496675  0.5136089741683576  1.0000
  N   N10       1.0  0.7313708316610678  0.801000948729421  0.4602808163402897  1.0000
  N   N11       1.0  0.9042353030137683  0.08064190154663747  0.5497643778563512  1.0000
  N   N12       1.0  0.27598686418284624  0.6275693298489328  0.47821174965446367  1.0000
  N   N13       1.0  0.575894810531475  0.7537575691324966  0.27347206086796644  1.0000
  N   N14       1.0  0.08459896428919905  0.2095094318750121  0.33847794967035366  1.0000
  N   N15       1.0  0.07846097992745571  0.9353733189373351  0.2745185128416077  1.0000
  N   N16       1.0  0.5796107437125873  0.3765248030419539  0.3128646690834  1.0000
  N   N17       1.0  0.5100624022951897  0.820102347214465  0.06411642548840742  1.0000
  N   N18       1.0  0.07644860192290734  0.2510907894977526  0.11365661200287604  1.0000
  N   N19       1.0  0.9710737375434488  0.9694304914050749  0.08393962251798037  1.0000
  N   N20       1.0  0.5548297784499187  0.40642324828459175  0.10273246087629744  1.0000
  N   N21       1.0  0.7736835481924763  0.9024243011813206  0.8426858928947825  1.0000
  N   N22       1.0  0.6420884782831213  0.9175942092505549  0.7071637775765761  1.0000
  N   N23       1.0  0.6472842102248685  0.08427930555542024  0.29572227495979114  1.0000
  N   N24       1.0  0.516609669850559  0.09277198126389383  0.16068677520491317  1.0000
  N   N25       1.0  0.3687020229395155  0.963626246940401  0.4648970963169775  1.0000
