data_image0
_chemical_formula_structural       H64C80N24I4
_chemical_formula_sum              "H64 C80 N24 I4"
_cell_length_a       7.900757252681414
_cell_length_b       13.261228733392635
_cell_length_c       18.602455102178205
_cell_angle_alpha    90.0
_cell_angle_beta     95.17729931457087
_cell_angle_gamma    90.0

_space_group_name_H-M_alt    "P 1"
_space_group_IT_number       1

loop_
  _space_group_symop_operation_xyz
  'x, y, z'

loop_
  _atom_site_type_symbol
  _atom_site_label
  _atom_site_symmetry_multiplicity
  _atom_site_fract_x
  _atom_site_fract_y
  _atom_site_fract_z
  _atom_site_occupancy
  H   H1        1.0  0.6305560049719703  0.6200820199484101  0.4177505496506624  1.0000
  H   H2        1.0  0.369443995184074  0.6200820199484101  0.08224945027688581  1.0000
  H   H3        1.0  0.1305560043643946  0.1200820196992866  0.41775054948735946  1.0000
  H   H4        1.0  0.8694439957916497  0.1200820196992866  0.08224945044018875  1.0000
  H   H5        1.0  0.36944399554830576  0.3799179805498368  0.5822494503965839  1.0000
  H   H6        1.0  0.6305560039128631  0.3799179805498368  0.9177505492516047  1.0000
  H   H7        1.0  0.8694439948954836  0.8799179800448823  0.5822494505805028  1.0000
  H   H8        1.0  0.13055600472862633  0.8799179800448823  0.9177505496070576  1.0000
  H   H9        1.0  0.3371458931259688  0.5689685467079413  0.3902355908731582  1.0000
  H   H10       1.0  0.6628541070300754  0.5689685467079413  0.10976440905439001  1.0000
  H   H11       1.0  0.8371458924731467  0.06896854645881784  0.39023559105707706  1.0000
  H   H12       1.0  0.16285410768289746  0.06896854645881784  0.10976440887047116  1.0000
  H   H13       1.0  0.6628541073943071  0.4310314530362277  0.6097644091740881  1.0000
  H   H14       1.0  0.33714589222980285  0.4310314530362277  0.8902355910134723  1.0000
  H   H15       1.0  0.16285410678673146  0.9310314532853511  0.6097644090107852  1.0000
  H   H16       1.0  0.8371458928373785  0.9310314532853511  0.8902355911767752  1.0000
  H   H17       1.0  0.20209800556082488  0.3923517612586186  0.24988106517295103  1.0000
  H   H18       1.0  0.7979019947581603  0.3923517612586186  0.2501189352939689  1.0000
  H   H19       1.0  0.7020980047450618  0.892351761507742  0.24988106481749817  1.0000
  H   H20       1.0  0.29790199541098245  0.892351761507742  0.25011893511005  1.0000
  H   H21       1.0  0.797901994959451  0.6076482384855503  0.7501189348742953  1.0000
  H   H22       1.0  0.20209800450171786  0.6076482384855503  0.7498810647738933  1.0000
  H   H23       1.0  0.2979019945148164  0.10764823823642689  0.750118935250364  1.0000
  H   H24       1.0  0.7020980051092934  0.10764823823642689  0.7498810649371963  1.0000
  H   H25       1.0  0.4283594626427175  0.3886366070304179  0.370068765241451  1.0000
  H   H26       1.0  0.57164053641587  0.3886366070304179  0.1299312352460848  1.0000
  H   H27       1.0  0.9283594630873522  0.8886366072795413  0.37006876486538226  1.0000
  H   H28       1.0  0.07164053706869201  0.8886366072795413  0.12993123506216595  1.0000
  H   H29       1.0  0.5716405366171606  0.611363392713751  0.6299312348264112  1.0000
  H   H30       1.0  0.42835946284400833  0.611363392713751  0.8700687648217775  1.0000
  H   H31       1.0  0.07164053743292371  0.11136339321870552  0.629931235181864  1.0000
  H   H32       1.0  0.928359463451584  0.11136339321870552  0.8700687649850805  1.0000
  H   H33       1.0  0.39051790163419503  0.13926687542531502  0.19060708295127668  1.0000
  H   H34       1.0  0.6094820986847901  0.13926687542531502  0.30939291751564324  1.0000
  H   H35       1.0  0.8905179008184319  0.6392668756744384  0.1906070825958238  1.0000
  H   H36       1.0  0.1094820993376123  0.6392668756744384  0.3093929173317244  1.0000
  H   H37       1.0  0.6094820988860808  0.8607331250729319  0.8093929170959696  1.0000
  H   H38       1.0  0.39051790057508795  0.8607331250729319  0.6906070825522189  1.0000
  H   H39       1.0  0.10948209844144627  0.3607331248238084  0.8093929174720383  1.0000
  H   H40       1.0  0.8905179011826636  0.3607331248238084  0.690607082715522  1.0000
  H   H41       1.0  0.25426963007749515  0.3886433153077419  0.11442853354073769  1.0000
  H   H42       1.0  0.7457303688181514  0.3886433153077419  0.3855714664074264  1.0000
  H   H43       1.0  0.7542696306850708  0.8886433155568654  0.11442853370404062  1.0000
  H   H44       1.0  0.2457303694709735  0.8886433155568654  0.3855714662235076  1.0000
  H   H45       1.0  0.745730369182383  0.611356684436427  0.8855714665271245  1.0000
  H   H46       1.0  0.2542696304417268  0.611356684436427  0.6144285336604357  1.0000
  H   H47       1.0  0.24573036983520524  0.11135668494138155  0.8855714663432058  1.0000
  H   H48       1.0  0.7542696310493024  0.11135668494138155  0.6144285338237387  1.0000
  H   H49       1.0  0.3319872816979919  0.26809318890998857  0.08715359427463401  1.0000
  H   H50       1.0  0.6680127184580523  0.26809318890998857  0.4128464056529142  1.0000
  H   H51       1.0  0.8319872823055675  0.7680931891591121  0.08715359443793697  1.0000
  H   H52       1.0  0.1680127178504767  0.7680931891591121  0.41284640548961127  1.0000
  H   H53       1.0  0.6680127188222841  0.7319068108341804  0.9128464057726124  1.0000
  H   H54       1.0  0.3319872820622236  0.7319068108341804  0.5871535943943321  1.0000
  H   H55       1.0  0.1680127182147084  0.23190681133913485  0.9128464056093093  1.0000
  H   H56       1.0  0.8319872812464604  0.23190681133913485  0.5871535940388792  1.0000
  H   H57       1.0  0.1556524028602885  0.274619342838853  0.14383973072734327  1.0000
  H   H58       1.0  0.8443475972957556  0.274619342838853  0.3561602692002049  1.0000
  H   H59       1.0  0.6556524020445254  0.7746193430879764  0.14383973037189043  1.0000
  H   H60       1.0  0.3443475968511211  0.7746193430879764  0.3561602695762737  1.0000
  H   H61       1.0  0.8443475976599876  0.725380656905316  0.8561602693199031  1.0000
  H   H62       1.0  0.15565240322452023  0.725380656905316  0.6438397308470415  1.0000
  H   H63       1.0  0.3443475970524118  0.22538065741027044  0.8561602691566  1.0000
  H   H64       1.0  0.6556524024087571  0.22538065741027044  0.6438397304915885  1.0000
  C   C1        1.0  0.9103502290274957  0.6425093964743189  0.4953372223006056  1.0000
  C   C2        1.0  0.08964977112854844  0.6425093964743189  0.004662777626942525  1.0000
  C   C3        1.0  0.4103502296803178  0.14250939697927356  0.4953372221166868  1.0000
  C   C4        1.0  0.5896497704757263  0.14250939697927356  0.0046627778108613875  1.0000
  C   C5        1.0  0.08964977023238244  0.3574906032698499  0.5046627777672565  1.0000
  C   C6        1.0  0.9103502293917275  0.3574906032698499  0.9953372224203036  1.0000
  C   C7        1.0  0.5896497708399581  0.8574906035189733  0.5046627779305596  1.0000
  C   C8        1.0  0.4103502287841518  0.8574906035189733  0.9953372222570007  1.0000
  C   C9        1.0  0.8410789434677804  0.5653220716359719  0.5352753304919143  1.0000
  C   C10       1.0  0.1589210561563294  0.5653220716359719  0.9647246696956459  1.0000
  C   C11       1.0  0.3410789441206025  0.06532207214092642  0.5352753303079956  1.0000
  C   C12       1.0  0.658921056763905  0.06532207214092642  0.9647246698589488  1.0000
  C   C13       1.0  0.1589210557920977  0.43467792810819705  0.46472466957594777  1.0000
  C   C14       1.0  0.8410789443639464  0.43467792810819705  0.035275330351600444  1.0000
  C   C15       1.0  0.6589210563996734  0.9346779283573203  0.4647246697392508  1.0000
  C   C16       1.0  0.34107894375637093  0.9346779283573203  0.03527533018829748  1.0000
  C   C17       1.0  0.6715453656245927  0.5302049456620155  0.5163272799960845  1.0000
  C   C18       1.0  0.32845463383657625  0.5302049456620155  0.9836727196521041  1.0000
  C   C19       1.0  0.1715453664403558  0.03020494541289204  0.5163272803515375  1.0000
  C   C20       1.0  0.8284546331837541  0.03020494541289204  0.983672719836023  1.0000
  C   C21       1.0  0.32845463363528554  0.4697950548362314  0.4836727200717776  1.0000
  C   C22       1.0  0.6715453665207586  0.4697950548362314  0.016327279855770555  1.0000
  C   C23       1.0  0.8284546340799201  0.9697950543312768  0.48367271969570885  1.0000
  C   C24       1.0  0.17154536607612406  0.9697950543312768  0.01632728023183933  1.0000
  C   C25       1.0  0.5738619475861549  0.5680170843469741  0.4541895791509808  1.0000
  C   C26       1.0  0.42613805273283023  0.5680170843469741  0.04581042131593919  1.0000
  C   C27       1.0  0.0738619482389771  0.06801708485192856  0.45418957896706197  1.0000
  C   C28       1.0  0.9261380519170671  0.06801708485192856  0.045810420960486334  1.0000
  C   C29       1.0  0.42613805167372326  0.43198291539719486  0.5458104209168815  1.0000
  C   C30       1.0  0.5738619477874457  0.43198291539719486  0.954189578731307  1.0000
  C   C31       1.0  0.9261380522812989  0.9319829156463182  0.5458104210801844  1.0000
  C   C32       1.0  0.07386194734281103  0.9319829156463182  0.9541895791073758  1.0000
  C   C33       1.0  0.40732941365042996  0.5393768612096091  0.43892418944613326  1.0000
  C   C34       1.0  0.5926705865056142  0.5393768612096091  0.06107581048141495  1.0000
  C   C35       1.0  0.9073294142580056  0.03937686096048573  0.43892418960943624  1.0000
  C   C36       1.0  0.09267058589803864  0.03937686096048573  0.061075810318111996  1.0000
  C   C37       1.0  0.592670586706905  0.4606231385345598  0.5610758100617413  1.0000
  C   C38       1.0  0.40732941401466166  0.4606231385345598  0.9389241895658315  1.0000
  C   C39       1.0  0.09267058626227037  0.9606231387836832  0.5610758104378101  1.0000
  C   C40       1.0  0.9073294133618396  0.9606231387836832  0.9389241897497502  1.0000
  C   C41       1.0  0.9313020189253488  0.5362983697047307  0.6004952317795818  1.0000
  C   C42       1.0  0.06869798069876115  0.5362983697047307  0.8995047684079787  1.0000
  C   C43       1.0  0.43130201957817094  0.036298369455607216  0.6004952315956629  1.0000
  C   C44       1.0  0.5686979813063368  0.036298369455607216  0.8995047685712816  1.0000
  C   C45       1.0  0.06869798033452938  0.46370163079351623  0.39950476828828047  1.0000
  C   C46       1.0  0.9313020198215148  0.46370163079351623  0.10049523163926773  1.0000
  C   C47       1.0  0.568697980942105  0.9637016302885616  0.39950476845158345  1.0000
  C   C48       1.0  0.43130201921393924  0.9637016302885616  0.10049523147596479  1.0000
  C   C49       1.0  0.328048032730985  0.3593717479587416  0.2588072152583051  1.0000
  C   C50       1.0  0.6719519674250592  0.3593717479587416  0.24119278466924307  1.0000
  C   C51       1.0  0.8280480333385606  0.8593717482078651  0.25880721542160806  1.0000
  C   C52       1.0  0.17195196681748362  0.8593717482078651  0.24119278450594014  1.0000
  C   C53       1.0  0.6719519663659522  0.6406282517854273  0.7411927842701853  1.0000
  C   C54       1.0  0.3280480330952167  0.6406282517854273  0.7588072153780032  1.0000
  C   C55       1.0  0.17195196718171532  0.14062825153630387  0.7411927846256383  1.0000
  C   C56       1.0  0.8280480337027923  0.14062825153630387  0.7588072155413061  1.0000
  C   C57       1.0  0.4384596066959473  0.3589229803430368  0.31649075677634636  1.0000
  C   C58       1.0  0.5615403934600968  0.3589229803430368  0.18350924315120185  1.0000
  C   C59       1.0  0.9384596060431252  0.8589229805921602  0.31649075696026524  1.0000
  C   C60       1.0  0.061540392852521275  0.8589229805921602  0.18350924298789892  1.0000
  C   C61       1.0  0.5615403938243286  0.641077019401132  0.6835092432709  1.0000
  C   C62       1.0  0.438459607060179  0.641077019401132  0.8164907568960444  1.0000
  C   C63       1.0  0.06154039321675299  0.14107701915200865  0.6835092431075971  1.0000
  C   C64       1.0  0.9384596062444159  0.14107701915200865  0.8164907565405916  1.0000
  C   C65       1.0  0.4442983451610617  0.20263599052729184  0.22132264279728228  1.0000
  C   C66       1.0  0.5557016549949824  0.20263599052729184  0.2786773571302659  1.0000
  C   C67       1.0  0.9442983456056964  0.7026359907764153  0.22132264242121355  1.0000
  C   C68       1.0  0.05570165455034782  0.7026359907764153  0.27867735750633466  1.0000
  C   C69       1.0  0.5557016553592142  0.797364009216877  0.778677357249964  1.0000
  C   C70       1.0  0.44429834536235246  0.797364009216877  0.7213226423776087  1.0000
  C   C71       1.0  0.05570165491457958  0.2973640097218316  0.7786773576260329  1.0000
  C   C72       1.0  0.9442983447095303  0.2973640097218316  0.7213226425615274  1.0000
  C   C73       1.0  0.27368308074982983  0.3095091082823023  0.12927416465812994  1.0000
  C   C74       1.0  0.7263169194062143  0.3095091082823023  0.3707258352694182  1.0000
  C   C75       1.0  0.7736830813574054  0.8095091085314258  0.1292741648214329  1.0000
  C   C76       1.0  0.22631691879863877  0.8095091085314258  0.3707258351061153  1.0000
  C   C77       1.0  0.7263169185100484  0.6904908914618665  0.8707258354097323  1.0000
  C   C78       1.0  0.27368308111406153  0.6904908914618665  0.629274164777828  1.0000
  C   C79       1.0  0.22631691916287047  0.19049089196682106  0.8707258352258135  1.0000
  C   C80       1.0  0.7736830817216371  0.19049089196682106  0.629274164941131  1.0000
  N   N1        1.0  0.9610406039976324  0.7081806398793185  0.4609486332594786  1.0000
  N   N2        1.0  0.03895939615841185  0.7081806398793185  0.03905136666806959  1.0000
  N   N3        1.0  0.4610406035529978  0.20818063963019504  0.46094863363554744  1.0000
  N   N4        1.0  0.5389593953426487  0.20818063963019504  0.039051366312616735  1.0000
  N   N5        1.0  0.03895939652264356  0.2918193606189284  0.5390513667877677  1.0000
  N   N6        1.0  0.961040604361864  0.2918193606189284  0.9609486333791767  1.0000
  N   N7        1.0  0.5389593957068805  0.7918193601139738  0.5390513664323148  1.0000
  N   N8        1.0  0.46104060375428846  0.7918193601139738  0.9609486332158738  1.0000
  N   N9        1.0  0.003281980357698625  0.5128613325908639  0.6559899342266644  1.0000
  N   N10       1.0  0.996718020526809  0.5128613325908639  0.84401006594028  1.0000
  N   N11       1.0  0.5032819797048765  0.012861332341740417  0.6559899344105833  1.0000
  N   N12       1.0  0.49671801991923337  0.012861332341740417  0.8440100657769771  1.0000
  N   N13       1.0  0.9967180201625774  0.48713866715330506  0.34401006582058197  1.0000
  N   N14       1.0  0.003281979993466884  0.48713866715330506  0.15598993410696627  1.0000
  N   N15       1.0  0.49671801955500167  0.9871386674024285  0.344010065657279  1.0000
  N   N16       1.0  0.5032819793406448  0.9871386674024285  0.15598993429088512  1.0000
  N   N17       1.0  0.39677541629841473  0.3073257133207864  0.19551942260259922  1.0000
  N   N18       1.0  0.6032245827601728  0.3073257133207864  0.3044805778849366  1.0000
  N   N19       1.0  0.8967754167430493  0.8073257128158319  0.19551942222653046  1.0000
  N   N20       1.0  0.10322458341299488  0.8073257128158319  0.3044805777010178  1.0000
  N   N21       1.0  0.6032245829614634  0.6926742871774604  0.8044805774652629  1.0000
  N   N22       1.0  0.39677541649970544  0.6926742871774604  0.6955194221829256  1.0000
  N   N23       1.0  0.1032245837772266  0.19267428692833705  0.8044805778207159  1.0000
  N   N24       1.0  0.896775417107281  0.19267428692833705  0.6955194223462285  1.0000
  I   I1        1.0  1.8211584582588404e-10  0.16650309819632497  0.250000000059849  1.0000
  I   I2        1.0  0.49999999952929375  0.6665030984454483  0.2500000002437679  1.0000
  I   I3        1.0  5.463475656023919e-10  0.833496901547844  0.7500000001795472  1.0000
  I   I4        1.0  0.49999999973058445  0.33349690205279847  0.7499999998240944  1.0000
