data_image0
_chemical_formula_structural       H48C94N28
_chemical_formula_sum              "H48 C94 N28"
_cell_length_a       7.679102087026035
_cell_length_b       18.958055278237946
_cell_length_c       13.135669867148158
_cell_angle_alpha    90.0
_cell_angle_beta     92.06222790428635
_cell_angle_gamma    90.0

_space_group_name_H-M_alt    "P 1"
_space_group_IT_number       1

loop_
  _space_group_symop_operation_xyz
  'x, y, z'

loop_
  _atom_site_type_symbol
  _atom_site_label
  _atom_site_symmetry_multiplicity
  _atom_site_fract_x
  _atom_site_fract_y
  _atom_site_fract_z
  _atom_site_occupancy
  H   H1        1.0  0.9071317895816302  0.3355777428976516  0.3541277251566804  1.0000
  H   H2        1.0  0.9071317895816302  0.6644222571952932  0.3541277251566804  1.0000
  H   H3        1.0  0.40713178999143423  0.835577742944124  0.35412772467695025  1.0000
  H   H4        1.0  0.40713178999143423  0.16442225714882086  0.35412772467695025  1.0000
  H   H5        1.0  0.753378139945694  0.33604270725557905  0.5120935644686859  1.0000
  H   H6        1.0  0.753378139945694  0.6639572928373657  0.5120935644686859  1.0000
  H   H7        1.0  0.2533781390531609  0.8360427073020514  0.5120935639872557  1.0000
  H   H8        1.0  0.2533781390531609  0.16395729279089336  0.5120935639872557  1.0000
  H   H9        1.0  0.4113527985240371  0.3333167841985173  0.18211105233311894  1.0000
  H   H10       1.0  0.4113527985240371  0.6666832158944275  0.18211105233311894  1.0000
  H   H11       1.0  0.9113527980702482  0.8333167842449898  0.18211105205107178  1.0000
  H   H12       1.0  0.9113527980702482  0.1666832158479551  0.18211105205107178  1.0000
  H   H13       1.0  0.25746279300737457  0.3351049243585955  0.33997375882889436  1.0000
  H   H14       1.0  0.25746279300737457  0.6648950752068691  0.33997375882889436  1.0000
  H   H15       1.0  0.7574627938559226  0.8351049244050679  0.33997375854854717  1.0000
  H   H16       1.0  0.7574627938559226  0.16489507516039661  0.33997375854854717  1.0000
  H   H17       1.0  0.7989756577087443  0.5000000000464724  0.469273445836985  1.0000
  H   H18       1.0  0.2989756581185483  0.0  0.4692734453572548  1.0000
  H   H19       1.0  0.6831940203554325  0.5000000000464724  0.6394773947342545  1.0000
  H   H20       1.0  0.18319402080922148  0.0  0.6394773950163017  1.0000
  H   H21       1.0  0.27217897683228254  0.5000000000464724  0.3357342610540666  1.0000
  H   H22       1.0  0.7721789764224786  0.0  0.33573426153379676  1.0000
  H   H23       1.0  0.15617258322675215  0.5000000000464724  0.506580934657256  1.0000
  H   H24       1.0  0.6561725840753001  0.0  0.5065809343769087  1.0000
  H   H25       1.0  0.09447223744053034  0.5000000000464724  0.07685557493786967  1.0000
  H   H26       1.0  0.5944722382890784  0.0  0.07685557465752245  1.0000
  H   H27       1.0  0.8713485745139592  0.5000000000464724  0.03210750674136222  1.0000
  H   H28       1.0  0.3713485736654111  0.0  0.03210750702170945  1.0000
  H   H29       1.0  0.3000935736135739  0.5650169741986104  0.9961036639294342  1.0000
  H   H30       1.0  0.3000935736135739  0.4349830258943344  0.9961036639294342  1.0000
  H   H31       1.0  0.800093573159785  0.065016974152138  0.9961036636473869  1.0000
  H   H32       1.0  0.800093573159785  0.9349830259408068  0.9961036636473869  1.0000
  H   H33       1.0  0.36853588086016753  0.6677507188478149  0.8854700501283811  1.0000
  H   H34       1.0  0.36853588086016753  0.33224928124513  0.8854700501283811  1.0000
  H   H35       1.0  0.8685358817087157  0.16775071880134246  0.8854700498480339  1.0000
  H   H36       1.0  0.8685358817087157  0.8322492812916024  0.8854700498480339  1.0000
  H   H37       1.0  0.12272154653352048  0.7241723688694736  0.7798315276188991  1.0000
  H   H38       1.0  0.12272154653352048  0.27582763069599103  0.7798315276188991  1.0000
  H   H39       1.0  0.6227215474260536  0.22417236935048135  0.7798315281003292  1.0000
  H   H40       1.0  0.6227215474260536  0.7758276307424634  0.7798315281003292  1.0000
  H   H41       1.0  0.8227462835175947  0.6704981288134241  0.7854109063107192  1.0000
  H   H42       1.0  0.8227462835175947  0.3295018712795208  0.7854109063107192  1.0000
  H   H43       1.0  0.32274628266904676  0.17049812876695158  0.7854109065910665  1.0000
  H   H44       1.0  0.32274628266904676  0.829501870798513  0.7854109065910665  1.0000
  H   H45       1.0  0.7773731357819472  0.5660278938166157  0.8947126467135175  1.0000
  H   H46       1.0  0.7773731357819472  0.4339721062763291  0.8947126467135175  1.0000
  H   H47       1.0  0.27737313619175114  0.06602789377014333  0.8947126462337874  1.0000
  H   H48       1.0  0.27737313619175114  0.9339721063228015  0.8947126462337874  1.0000
  C   C1        1.0  0.9451805047540466  0.3333155709939105  0.15942346273605384  1.0000
  C   C2        1.0  0.9451805047540466  0.6666844285715541  0.15942346273605384  1.0000
  C   C3        1.0  0.4451805052078356  0.8333155710403829  0.159423463018101  1.0000
  C   C4        1.0  0.4451805052078356  0.16668442852508164  0.159423463018101  1.0000
  C   C5        1.0  0.7620332807982936  0.33001417277128553  0.16262982778931578  1.0000
  C   C6        1.0  0.7620332807982936  0.6699858273216592  0.16262982778931578  1.0000
  C   C7        1.0  0.26203327994974557  0.8300141728177579  0.162629828069663  1.0000
  C   C8        1.0  0.26203327994974557  0.16998582727518685  0.162629828069663  1.0000
  C   C9        1.0  0.6725973750215738  0.3329756400302426  0.25492165691272806  1.0000
  C   C10       1.0  0.6725973750215738  0.6670243595352219  0.25492165691272806  1.0000
  C   C11       1.0  0.17259737547536272  0.832975640076715  0.2549216571947752  1.0000
  C   C12       1.0  0.17259737547536272  0.16702435948874952  0.2549216571947752  1.0000
  C   C13       1.0  0.765211704818936  0.33464551542280674  0.3511181089366806  1.0000
  C   C14       1.0  0.765211704818936  0.665354484670138  0.3511181089366806  1.0000
  C   C15       1.0  0.265211705272725  0.8346455154692791  0.35111810921872777  1.0000
  C   C16       1.0  0.265211705272725  0.16535448462366564  0.35111810921872777  1.0000
  C   C17       1.0  0.6782570772199871  0.3350399503946566  0.4401569619825911  1.0000
  C   C18       1.0  0.6782570772199871  0.6649600496982881  0.4401569619825911  1.0000
  C   C19       1.0  0.17825707637143898  0.8350399499136487  0.44015696226293827  1.0000
  C   C20       1.0  0.17825707637143898  0.1649600496518158  0.44015696226293827  1.0000
  C   C21       1.0  0.4920249540376805  0.3342220263105445  0.43920050285423023  1.0000
  C   C22       1.0  0.4920249540376805  0.66577797325492  0.43920050285423023  1.0000
  C   C23       1.0  0.9920249536278766  0.8342220263570168  0.4392005033339604  1.0000
  C   C24       1.0  0.9920249536278766  0.16577797320844764  0.4392005033339604  1.0000
  C   C25       1.0  0.40265684283970704  0.3335233375576319  0.5312438156457103  1.0000
  C   C26       1.0  0.40265684283970704  0.6664766625353129  0.5312438156457103  1.0000
  C   C27       1.0  0.9026568436882552  0.8335233370766241  0.531243815365363  1.0000
  C   C28       1.0  0.9026568436882552  0.1664766624888405  0.531243815365363  1.0000
  C   C29       1.0  0.49173770305937664  0.3304631196635214  0.6267727838560938  1.0000
  C   C30       1.0  0.49173770305937664  0.6695368804294235  0.6267727838560938  1.0000
  C   C31       1.0  0.9917377026495728  0.8304631197099938  0.6267727843358241  1.0000
  C   C32       1.0  0.9917377026495728  0.16953688038295103  0.6267727843358241  1.0000
  C   C33       1.0  0.6722067087647181  0.3233154535125767  0.0676367913570163  1.0000
  C   C34       1.0  0.6722067087647181  0.6766845460528879  0.0676367913570163  1.0000
  C   C35       1.0  0.1722067079161701  0.8233154535590491  0.06763679163736352  1.0000
  C   C36       1.0  0.1722067079161701  0.17668454653389573  0.06763679163736352  1.0000
  C   C37       1.0  0.48654193044373373  0.3332472480577765  0.2540111384565828  1.0000
  C   C38       1.0  0.48654193044373373  0.6667527515076881  0.2540111384565828  1.0000
  C   C39       1.0  0.9865419299899447  0.8332472481042489  0.25401113817453563  1.0000
  C   C40       1.0  0.9865419299899447  0.16675275146121565  0.25401113817453563  1.0000
  C   C41       1.0  0.39940011862503844  0.3343160718217445  0.3430080574751103  1.0000
  C   C42       1.0  0.39940011862503844  0.6656839282712004  0.3430080574751103  1.0000
  C   C43       1.0  0.8994001182152346  0.8343160718682169  0.3430080579548405  1.0000
  C   C44       1.0  0.8994001182152346  0.1656839282247279  0.3430080579548405  1.0000
  C   C45       1.0  0.21901739274811746  0.33416086550143287  0.5339732979317945  1.0000
  C   C46       1.0  0.21901739274811746  0.6658391345915119  0.5339732979317945  1.0000
  C   C47       1.0  0.7190173935966655  0.8341608655479053  0.5339732976514472  1.0000
  C   C48       1.0  0.7190173935966655  0.16583913454503954  0.5339732976514472  1.0000
  C   C49       1.0  0.7968246846353466  0.5000000000464724  0.27502365566926584  1.0000
  C   C50       1.0  0.2968246850451506  0.0  0.27502365518953564  1.0000
  C   C51       1.0  0.6155139424770726  0.5000000000464724  0.2900587020462872  1.0000
  C   C52       1.0  0.11551394158453943  0.0  0.2900587015648571  1.0000
  C   C53       1.0  0.5456045338937536  0.5000000000464724  0.3885274821645841  1.0000
  C   C54       1.0  0.04560453430355748  0.0  0.3885274816848539  1.0000
  C   C55       1.0  0.6582944545043393  0.5000000000464724  0.4777312903414163  1.0000
  C   C56       1.0  0.15829445491414315  0.0  0.47773128986168606  1.0000
  C   C57       1.0  0.5930376025765893  0.5000000000464724  0.5733728309124204  1.0000
  C   C58       1.0  0.09303760298639328  0.0  0.5733728304326902  1.0000
  C   C59       1.0  0.4094376948555639  0.5000000000464724  0.5870658274508749  1.0000
  C   C60       1.0  0.909437694401775  0.0  0.5870658271688276  1.0000
  C   C61       1.0  0.34208162180249757  0.5000000000464724  0.68677181327614  1.0000
  C   C62       1.0  0.8420816226950306  0.0  0.68677181375757  1.0000
  C   C63       1.0  0.4527126407588047  0.5000000000464724  0.7746436206714212  1.0000
  C   C64       1.0  0.9527126403050158  0.0  0.7746436203893742  1.0000
  C   C65       1.0  0.508691167947048  0.5000000000464724  0.2003824470690637  1.0000
  C   C66       1.0  0.008691168400836943  0.0  0.20038244735111085  1.0000
  C   C67       1.0  0.36196076289301155  0.5000000000464724  0.4020596954920216  1.0000
  C   C68       1.0  0.8619607637415596  0.0  0.40205969521167445  1.0000
  C   C69       1.0  0.29683058234551957  0.5000000000464724  0.4980333361099394  1.0000
  C   C70       1.0  0.7968305819357158  0.0  0.4980333365896695  1.0000
  C   C71       1.0  0.1610915033412262  0.5000000000464724  0.7013651858099352  1.0000
  C   C72       1.0  0.6610915028874372  0.0  0.7013651855278881  1.0000
  C   C73       1.0  0.006862322671030945  0.5000000000464724  0.00920352201992315  1.0000
  C   C74       1.0  0.5068623235195789  0.0  0.009203521739575922  1.0000
  C   C75       1.0  0.20199965263181138  0.5904315329668335  0.9464676819483672  1.0000
  C   C76       1.0  0.20199965263181138  0.40956846712611134  0.9464676819483672  1.0000
  C   C77       1.0  0.7019996521780225  0.09043153292036109  0.9464676816663201  1.0000
  C   C78       1.0  0.7019996521780225  0.9095684671725837  0.9464676816663201  1.0000
  C   C79       1.0  0.2359110995416607  0.6476015445578502  0.8851870734746558  1.0000
  C   C80       1.0  0.2359110995416607  0.3523984550076143  0.8851870734746558  1.0000
  C   C81       1.0  0.7359111003902087  0.14760154503885808  0.8851870731943084  1.0000
  C   C82       1.0  0.7359111003902087  0.8523984550540866  0.8851870731943084  1.0000
  C   C83       1.0  0.09994695018355321  0.6780429026787154  0.8270529959438206  1.0000
  C   C84       1.0  0.09994695018355321  0.3219570968867491  0.8270529959438206  1.0000
  C   C85       1.0  0.5999469497297641  0.17804290315972332  0.8270529956617736  1.0000
  C   C86       1.0  0.5999469497297641  0.8219570969332215  0.8270529956617736  1.0000
  C   C87       1.0  0.9329550838957394  0.6496165407923982  0.8301895322913442  1.0000
  C   C88       1.0  0.9329550838957394  0.3503834593005467  0.8301895322913442  1.0000
  C   C89       1.0  0.43295508300320634  0.1496165407459257  0.8301895318099138  1.0000
  C   C90       1.0  0.43295508300320634  0.850383459347019  0.8301895318099138  1.0000
  C   C91       1.0  0.9043342926060614  0.5915527302461978  0.8908998838734752  1.0000
  C   C92       1.0  0.9043342926060614  0.4084472698467469  0.8908998838734752  1.0000
  C   C93       1.0  0.40433429305985036  0.09155273019972546  0.8908998841555222  1.0000
  C   C94       1.0  0.40433429305985036  0.908447269365739  0.8908998841555222  1.0000
  N   N1        1.0  0.09697934482966264  0.3369595618456146  0.15407910149852824  1.0000
  N   N2        1.0  0.09697934482966264  0.6630404382473303  0.15407910149852824  1.0000
  N   N3        1.0  0.5969793443758736  0.836959561892087  0.15407910121648108  1.0000
  N   N4        1.0  0.5969793443758736  0.1630404382008578  0.15407910121648108  1.0000
  N   N5        1.0  0.563534755213576  0.3279158003688343  0.7068512302438412  1.0000
  N   N6        1.0  0.563534755213576  0.6720841991966303  0.7068512302438412  1.0000
  N   N7        1.0  0.06353475562337993  0.8279158004153068  0.706851229764111  1.0000
  N   N8        1.0  0.06353475562337993  0.1720841996776381  0.706851229764111  1.0000
  N   N9        1.0  0.6005273246209796  0.3177149381410513  0.9878052245280636  1.0000
  N   N10       1.0  0.6005273246209796  0.6822850619518935  0.9878052245280636  1.0000
  N   N11       1.0  0.10052732507476854  0.8177149381875237  0.9878052248101108  1.0000
  N   N12       1.0  0.10052732507476854  0.18228506190542113  0.9878052248101108  1.0000
  N   N13       1.0  0.06695377351961429  0.3351009149811101  0.5382647550169126  1.0000
  N   N14       1.0  0.06695377351961429  0.6648990851118347  0.5382647550169126  1.0000
  N   N15       1.0  0.5669537730658254  0.8351009150275824  0.5382647547348656  1.0000
  N   N16       1.0  0.5669537730658254  0.1648990850653623  0.5382647547348656  1.0000
  N   N17       1.0  0.9465554411648794  0.5000000000464724  0.26028931541815714  1.0000
  N   N18       1.0  0.44655544161866834  0.0  0.2602893157002043  1.0000
  N   N19       1.0  0.5435371938637864  0.5000000000464724  0.8484624811319813  1.0000
  N   N20       1.0  0.043537192971253254  0.0  0.8484624806505511  1.0000
  N   N21       1.0  0.42267024409292087  0.5000000000464724  0.1248514112845983  1.0000
  N   N22       1.0  0.922670243683117  0.0  0.12485141176432847  1.0000
  N   N23       1.0  0.00986877496629709  0.5000000000464724  0.711666717624941  1.0000
  N   N24       1.0  0.5098687745125081  0.0  0.7116667173428938  1.0000
  N   N25       1.0  0.03787758034721967  0.5635925770437504  0.9480699943550503  1.0000
  N   N26       1.0  0.03787758034721967  0.4364074230491944  0.9480699943550503  1.0000
  N   N27       1.0  0.5378775812397528  0.06359257699727804  0.9480699948364804  1.0000
  N   N28       1.0  0.5378775812397528  0.9364074230956667  0.9480699948364804  1.0000
