data_image0
_chemical_formula_structural       H34C44N6O8
_chemical_formula_sum              "H34 C44 N6 O8"
_cell_length_a       7.095393663823344
_cell_length_b       10.956346921037179
_cell_length_c       11.920256412460839
_cell_angle_alpha    97.61173259656042
_cell_angle_beta     100.21100640318468
_cell_angle_gamma    105.68249092934802

_space_group_name_H-M_alt    "P 1"
_space_group_IT_number       1

loop_
  _space_group_symop_operation_xyz
  'x, y, z'

loop_
  _atom_site_type_symbol
  _atom_site_label
  _atom_site_symmetry_multiplicity
  _atom_site_fract_x
  _atom_site_fract_y
  _atom_site_fract_z
  _atom_site_occupancy
  H   H1        1.0  0.7161028261836989  0.3208819489950452  0.6508915454318531  1.0000
  H   H2        1.0  0.2838971737835031  0.6791180510034945  0.3491084541929945  1.0000
  H   H3        1.0  0.7750745495513328  0.48022277144486036  0.5130111756049298  1.0000
  H   H4        1.0  0.22492545041032813  0.5197772285641362  0.48698882485944284  1.0000
  H   H5        1.0  0.20374941386716258  0.7506994990028789  0.8048006921152431  1.0000
  H   H6        1.0  0.7962505860944983  0.24930050100611756  0.1951993083491297  1.0000
  H   H7        1.0  0.1164579467947199  0.5882315062706027  0.9269078259961774  1.0000
  H   H8        1.0  0.8835420531724822  0.411768493727937  0.07309217362867015  1.0000
  H   H9        1.0  0.9389192630254318  0.686962374540529  0.4808302211134187  1.0000
  H   H10       1.0  0.061080736941770214  0.3130376254580107  0.5191697785114289  1.0000
  H   H11       1.0  0.24770398792005005  0.8790730853639287  0.6895375975068181  1.0000
  H   H12       1.0  0.7522960120416106  0.12092691464506768  0.3104624029575545  1.0000
  H   H13       1.0  0.49696524283458937  0.31069252452073987  0.5192193498326874  1.0000
  H   H14       1.0  0.5030347571270715  0.6893074754882567  0.48078065063168535  1.0000
  H   H15       1.0  0.4701920016258319  0.3513618076161971  0.3182685237797616  1.0000
  H   H16       1.0  0.5298079983413703  0.6486381923823427  0.681731475845086  1.0000
  H   H17       1.0  0.266803461492416  0.1787575963439464  0.1496000513550781  1.0000
  H   H18       1.0  0.7331965384692447  0.8212424036650501  0.8503999491092945  1.0000
  H   H19       1.0  0.0832572955381225  0.9603017520277517  0.17856025312278923  1.0000
  H   H20       1.0  0.9167427044290797  0.03969824797078811  0.8214397465020584  1.0000
  H   H21       1.0  0.8743108569788384  0.3763590260179947  0.8436143734905418  1.0000
  H   H22       1.0  0.12568914298836362  0.6236409739805451  0.1563856261343059  1.0000
  H   H23       1.0  0.3964505647796564  0.09659856182595254  0.6423705260566192  1.0000
  H   H24       1.0  0.6035494351875456  0.9034014381725872  0.3576294735682285  1.0000
  H   H25       1.0  0.2060950126371983  0.3056177907749271  0.9750584508784642  1.0000
  H   H26       1.0  0.7939049873300037  0.6943822092236126  0.02494154874638345  1.0000
  H   H27       1.0  0.60947013887591  0.5697025706201017  0.8261787914920373  1.0000
  H   H28       1.0  0.39052986108575094  0.43029742938889487  0.17382120897233536  1.0000
  H   H29       1.0  0.05355821420691112  0.20396943098812687  0.6864072826695842  1.0000
  H   H30       1.0  0.9464417857547498  0.7960305690208697  0.31359271779478853  1.0000
  H   H31       1.0  0.7377505389739919  0.9447353406417378  0.15042548929905747  1.0000
  H   H32       1.0  0.26224946099321017  0.05526465935680192  0.8495745103257902  1.0000
  H   H33       1.0  0.8654580074161029  0.11123546054420953  0.03387252026101639  1.0000
  H   H34       1.0  0.13454199255109908  0.8887645394543301  0.9661274793638311  1.0000
  C   C1        1.0  0.8196256648522059  0.4183535359715901  0.6766019048656164  1.0000
  C   C2        1.0  0.1803743351149961  0.5816464640269496  0.32339809475923126  1.0000
  C   C3        1.0  0.8549897790299653  0.5059716306782112  0.6037681067274248  1.0000
  C   C4        1.0  0.14501022093169544  0.4940283693307853  0.3962318937369479  1.0000
  C   C5        1.0  0.9946166987667762  0.6297111967045447  0.6471461754796188  1.0000
  C   C6        1.0  0.005383301200425911  0.37028880329399505  0.35285382414522876  1.0000
  C   C7        1.0  0.09337394741520502  0.6578174363901893  0.7653250520511062  1.0000
  C   C8        1.0  0.9066260525464558  0.3421825636188072  0.23467494841326647  1.0000
  C   C9        1.0  0.048416493486993666  0.5673110891004157  0.8344574976216975  1.0000
  C   C10       1.0  0.9515835064802084  0.43268891089812395  0.16554250200315002  1.0000
  C   C11       1.0  0.02886021285461073  0.7205263456006172  0.5696480581559097  1.0000
  C   C12       1.0  0.9711397871070502  0.2794736544083793  0.430351942308463  1.0000
  C   C13       1.0  0.15960881448867326  0.8414685896080103  0.6008113715857619  1.0000
  C   C14       1.0  0.8403911854785288  0.15853141039052934  0.3991886280390856  1.0000
  C   C15       1.0  0.19416233794817206  0.928434947856028  0.5213818445431939  1.0000
  C   C16       1.0  0.8058376620134887  0.07156505215296856  0.4786181559211788  1.0000
  C   C17       1.0  0.32095739502550996  0.10953914389925332  0.46079211572180234  1.0000
  C   C18       1.0  0.6790426049416921  0.8904608560992864  0.5392078839030453  1.0000
  C   C19       1.0  0.41559703075670335  0.23373473772414738  0.4456297698162232  1.0000
  C   C20       1.0  0.5844029692049576  0.7662652622848491  0.5543702306481495  1.0000
  C   C21       1.0  0.394421410250439  0.25575598563633406  0.3324833530294602  1.0000
  C   C22       1.0  0.605578589716763  0.7442440143622058  0.6675166465953875  1.0000
  C   C23       1.0  0.2769522516499938  0.15800556861133502  0.23707011114033397  1.0000
  C   C24       1.0  0.723047748311667  0.8419944313976614  0.7629298893240387  1.0000
  C   C25       1.0  0.17445261924776478  0.0358397065364969  0.2519478080443534  1.0000
  C   C26       1.0  0.8255473807194373  0.9641602934620428  0.7480521915804942  1.0000
  C   C27       1.0  0.19768080666567706  0.011355963556296705  0.36548810886072775  1.0000
  C   C28       1.0  0.802319193301525  0.9886440364422431  0.6345118907641198  1.0000
  C   C29       1.0  0.2870348859593954  0.3594678962768687  0.7682284363755854  1.0000
  C   C30       1.0  0.7129651140078067  0.640532103721671  0.23177156324926226  1.0000
  C   C31       1.0  0.39845312281682527  0.42944145259809435  0.888381527583114  1.0000
  C   C32       1.0  0.6015468771448356  0.5705585474109022  0.11161847288125872  1.0000
  C   C33       1.0  0.336507716211452  0.38973952693598557  0.9867133403038456  1.0000
  C   C34       1.0  0.6634922837557501  0.6102604730625542  0.013286659321002026  1.0000
  C   C35       1.0  0.5623303110032548  0.5400923935048151  0.9029491538363925  1.0000
  C   C36       1.0  0.43766968896394715  0.4599076064937247  0.09705084578845516  1.0000
  C   C37       1.0  0.35061173570891563  0.8081451379024978  0.13544518545383205  1.0000
  C   C38       1.0  0.6493882642527452  0.19185486210649877  0.8645548150105405  1.0000
  C   C39       1.0  0.4281704315980451  0.9074960087917013  0.06573133614210411  1.0000
  C   C40       1.0  0.571829568369157  0.0925039912068385  0.9342686634827436  1.0000
  C   C41       1.0  0.6344049389197365  0.9702721712564266  0.08505656551032495  1.0000
  C   C42       1.0  0.3655950610419242  0.02972782875256978  0.9149434349540477  1.0000
  C   C43       1.0  0.7052334954341786  0.06195341619597449  0.019781094925971094  1.0000
  C   C44       1.0  0.2947665045330234  0.9380465838025651  0.9802189046988765  1.0000
  N   N1        1.0  0.913839200839817  0.4503900473264109  0.7893478131632532  1.0000
  N   N2        1.0  0.08616079912184375  0.5496099526825855  0.21065218730111948  1.0000
  N   N3        1.0  0.11920336476346395  0.9006455287023716  0.40606099977257937  1.0000
  N   N4        1.0  0.8807966352037381  0.09935447129616819  0.5939389998522683  1.0000
  N   N5        1.0  0.3163376249918414  0.053454382558195034  0.5572077622035899  1.0000
  N   N6        1.0  0.6836623749753606  0.9465456174403447  0.44279223742125773  1.0000
  O   O1        1.0  0.1485188298461222  0.25041609542403054  0.7676582992145359  1.0000
  O   O2        1.0  0.8514811701210798  0.7495839045745092  0.2323417004103117  1.0000
  O   O3        1.0  0.31833916858250866  0.4035525184013831  0.6805391685701381  1.0000
  O   O4        1.0  0.6816608313791522  0.5964474816076134  0.3194608318942346  1.0000
  O   O5        1.0  0.4489472220936717  0.8142381398515185  0.23637879605179468  1.0000
  O   O6        1.0  0.5510527778679891  0.185761860157478  0.763621204412578  1.0000
  O   O7        1.0  0.1846827627456159  0.7208213654654421  0.08555770942806012  1.0000
  O   O8        1.0  0.8153172372215862  0.2791786345330977  0.9144422901967877  1.0000
