data_image0
_chemical_formula_structural       H56C56N8O10
_chemical_formula_sum              "H56 C56 N8 O10"
_cell_length_a       5.466291838131381
_cell_length_b       8.188929973996212
_cell_length_c       26.521181839116934
_cell_angle_alpha    93.39093881636074
_cell_angle_beta     90.7197729325609
_cell_angle_gamma    90.27450026378105

_space_group_name_H-M_alt    "P 1"
_space_group_IT_number       1

loop_
  _space_group_symop_operation_xyz
  'x, y, z'

loop_
  _atom_site_type_symbol
  _atom_site_label
  _atom_site_symmetry_multiplicity
  _atom_site_fract_x
  _atom_site_fract_y
  _atom_site_fract_z
  _atom_site_occupancy
  H   H1        1.0  0.22380801735279623  0.5234228454288266  0.15847252717576743  1.0000
  H   H2        1.0  0.03900507899448086  0.1538130274179192  0.15816311146894482  1.0000
  H   H3        1.0  0.8208510546323718  0.12879572920449114  0.2531480912794734  1.0000
  H   H4        1.0  0.9637911144295851  0.3192749848037835  0.26064734680671203  1.0000
  H   H5        1.0  0.40199671824196587  0.44987218542306345  0.060566315696854334  1.0000
  H   H6        1.0  0.47864684001644725  0.22990681283083106  0.31015011633456424  1.0000
  H   H7        1.0  0.6129398815327511  0.42484550254273634  0.3153782152476813  1.0000
  H   H8        1.0  0.32153876524125835  0.4615763716310754  0.24771777836387918  1.0000
  H   H9        1.0  0.7477122952893668  0.3053978325748917  0.016494840957358127  1.0000
  H   H10       1.0  0.06349232505871907  0.16033155724862724  0.06525265322965602  1.0000
  H   H11       1.0  0.07428374643514966  0.1135579587510783  0.3810224791657673  1.0000
  H   H12       1.0  0.0921193102407348  0.6641306920079145  0.6246625627390883  1.0000
  H   H13       1.0  0.29084599595807786  0.159296410869919  0.8512587559960046  1.0000
  H   H14       1.0  0.15516863944689005  0.830264375498517  0.9386275376469806  1.0000
  H   H15       1.0  0.8643850979837676  0.730301704530583  0.7528418799332741  1.0000
  H   H16       1.0  0.005639197372669727  0.9176620725466127  0.7444918592742268  1.0000
  H   H17       1.0  0.10724316537435097  0.7913292541441027  0.8458865405344982  1.0000
  H   H18       1.0  0.36597541394170613  0.0651382868857119  0.7612298289568425  1.0000
  H   H19       1.0  0.49592328978665384  0.12111888734940908  0.9484427479824133  1.0000
  H   H20       1.0  0.8529288026368279  0.990982905589592  0.989751915418295  1.0000
  H   H21       1.0  0.5099696394711944  0.808378175222839  0.6971696415838659  1.0000
  H   H22       1.0  0.6413893494521262  0.001418965597274581  0.6911850140724056  1.0000
  H   H23       1.0  0.9300791388708634  0.2485222436506026  0.619200877911938  1.0000
  H   H24       1.0  0.5319998327160482  0.6991312138506318  0.8084730770650861  1.0000
  H   H25       1.0  0.24272843594831875  0.560431554710169  0.7441744193882605  1.0000
  H   H26       1.0  0.6088616689821416  0.31193725928299026  0.7316257951335451  1.0000
  H   H27       1.0  0.791252107160076  0.48699408820926343  0.7305004241583711  1.0000
  H   H28       1.0  0.9436762695409108  0.2885501539177116  0.903991873638065  1.0000
  H   H29       1.0  0.7338275394153219  0.34535805788236124  0.8159460193481625  1.0000
  H   H30       1.0  0.9341345979469438  0.19604058146995218  0.7918294848160794  1.0000
  H   H31       1.0  0.16976081477570298  0.3526932397908169  0.9846346050351394  1.0000
  H   H32       1.0  0.6755989615013418  0.6660160457933217  0.9110995319466686  1.0000
  H   H33       1.0  0.5305184809115101  0.5393275386854266  0.9877704858419634  1.0000
  H   H34       1.0  0.9106402233929184  0.7001628033452827  0.3863900644576421  1.0000
  H   H35       1.0  0.4822845236483177  0.07130156284995523  0.1920331794033454  1.0000
  H   H36       1.0  0.8787793345885982  0.5811669230283228  0.21368733771442058  1.0000
  H   H37       1.0  0.6756867351514754  0.7230480349175341  0.1905886838611805  1.0000
  H   H38       1.0  0.21084411068586678  0.9609605437285151  0.2585440377970733  1.0000
  H   H39       1.0  0.854679136308166  0.630738991689852  0.10158678683176893  1.0000
  H   H40       1.0  0.7581694337880203  0.8980614927811371  0.27531325808230706  1.0000
  H   H41       1.0  0.5705154707871495  0.7250535635953071  0.27527681640122625  1.0000
  H   H42       1.0  0.049625553892680495  0.665849693468792  0.01880773002794521  1.0000
  H   H43       1.0  0.410798393049776  0.8474652777485983  0.01214408126105582  1.0000
  H   H44       1.0  0.584586973246333  0.0026642951802344833  0.0877920007479099  1.0000
  H   H45       1.0  0.25508928194879654  0.5410545383272316  0.3658429795182542  1.0000
  H   H46       1.0  0.4740797330797498  0.44125432469014836  0.40320231582485344  1.0000
  H   H47       1.0  0.9978095196550011  0.6838743667910333  0.5284119541554491  1.0000
  H   H48       1.0  0.4818166265061283  0.49008467286235685  0.6303031245882215  1.0000
  H   H49       1.0  0.6159493534802944  0.4042714881872205  0.4716355489676982  1.0000
  H   H50       1.0  0.7388232885217357  0.3678811185885738  0.5603729704825816  1.0000
  H   H51       1.0  0.2748466538830489  0.09712850291964294  0.6397084430313449  1.0000
  H   H52       1.0  0.48838311679488544  0.9819271198392934  0.6024565713071783  1.0000
  H   H53       1.0  0.9936509130382347  0.172604040368364  0.47691543645895196  1.0000
  H   H54       1.0  0.46357589362843943  0.9369445173062761  0.37531070158662116  1.0000
  H   H55       1.0  0.6204114959436091  0.9169562083494137  0.5340002163146469  1.0000
  H   H56       1.0  0.7303827181798016  0.843422872915961  0.4452599043800836  1.0000
  C   C1        1.0  0.529259169348563  0.3813536075342891  0.1340485563644331  1.0000
  C   C2        1.0  0.9009464968196838  0.2179784558572274  0.13724653778466042  1.0000
  C   C3        1.0  0.6386581478071105  0.31848486098286016  0.2150749879684278  1.0000
  C   C4        1.0  0.7070283373763336  0.29759722298837155  0.16266585630171762  1.0000
  C   C5        1.0  0.8000083569942976  0.24747513801945112  0.35548522373103913  1.0000
  C   C6        1.0  0.7818782962111194  0.2602849887459512  0.2589460365725595  1.0000
  C   C7        1.0  0.5397832184738146  0.384849618559155  0.0814412802768304  1.0000
  C   C8        1.0  0.656570413060135  0.294315635652947  0.30945106108596526  1.0000
  C   C9        1.0  0.42846078524634773  0.41268204562821614  0.21611309523999184  1.0000
  C   C10       1.0  0.7341668705964222  0.30465133315369053  0.057457024568403195  1.0000
  C   C11       1.0  0.913439236078805  0.22252436175376508  0.08498528958828624  1.0000
  C   C12       1.0  0.0004786759065755757  0.8856709315300642  0.9199539935224033  1.0000
  C   C13       1.0  0.6041798655918669  0.027703655205121188  0.873613150646267  1.0000
  C   C14       1.0  0.6921767530048489  0.9349020298312777  0.7918056074485094  1.0000
  C   C15       1.0  0.8242092903202874  0.8595983957930223  0.7471610394210497  1.0000
  C   C16       1.0  0.7743795920623558  0.9336119871466622  0.843748586751408  1.0000
  C   C17       1.0  0.8218369322637901  0.8081510719015057  0.6506964294267223  1.0000
  C   C18       1.0  0.9747487669989837  0.8630185529514602  0.867780515436601  1.0000
  C   C19       1.0  0.4815599727696404  0.028654225841918547  0.79217090926037  1.0000
  C   C20       1.0  0.628107685625349  0.04946490585632391  0.9262469188058193  1.0000
  C   C21       1.0  0.8285248992870119  0.9772889383771158  0.94884816126155  1.0000
  C   C22       1.0  0.6874804735794425  0.8734800873437226  0.6971639200546738  1.0000
  C   C23       1.0  0.09755093780408888  0.43074924611270715  0.8093677576744773  1.0000
  C   C24       1.0  0.18269741068787246  0.44086667888348263  0.8610550241894932  1.0000
  C   C25       1.0  0.9415507862137863  0.275803838496705  0.6940366157391681  1.0000
  C   C26       1.0  0.38906589892515603  0.5485174711027481  0.8639923849968012  1.0000
  C   C27       1.0  0.24788256406855727  0.5320459867493588  0.7836299346145038  1.0000
  C   C28       1.0  0.7987741710465798  0.355482490820662  0.7370340784545547  1.0000
  C   C29       1.0  0.10260735886711725  0.3696614064993902  0.9050213491432275  1.0000
  C   C30       1.0  0.8884179793018593  0.3263517124037013  0.7901453239771273  1.0000
  C   C31       1.0  0.22948655701594242  0.40627457908640585  0.9501215702788526  1.0000
  C   C32       1.0  0.5170658769050347  0.5847998756660654  0.909228513510031  1.0000
  C   C33       1.0  0.4342954968992398  0.5120556247726261  0.9520280727261432  1.0000
  C   C34       1.0  0.042204955499854854  0.8073554027014813  0.19472455002914096  1.0000
  C   C35       1.0  0.8366445415319809  0.712684818053052  0.2155026303947467  1.0000
  C   C36       1.0  0.31582938195386545  0.9027809698155121  0.1374857356189499  1.0000
  C   C37       1.0  0.11011281994885855  0.7972159885813999  0.1423301942252941  1.0000
  C   C38       1.0  0.9098787389366254  0.6996222631469444  0.31159509163073035  1.0000
  C   C39       1.0  0.20227220126239862  0.9173896189802438  0.21910880618540415  1.0000
  C   C40       1.0  0.013236943823056789  0.7109081862621861  0.09909152229968476  1.0000
  C   C41       1.0  0.7602869297673565  0.7638418792938233  0.2689853720427741  1.0000
  C   C42       1.0  0.12241650587277748  0.7313312400570352  0.052765826447013726  1.0000
  C   C43       1.0  0.32718139352692704  0.8352208198011356  0.04887417692196349  1.0000
  C   C44       1.0  0.42678090315499556  0.9224539284090925  0.09099207102365764  1.0000
  C   C45       1.0  0.16211644772126751  0.6120495880926635  0.5339086819129493  1.0000
  C   C46       1.0  0.29346401604384176  0.5459039760162735  0.4926553833721946  1.0000
  C   C47       1.0  0.4335546945476027  0.5053111451928516  0.5908409971469988  1.0000
  C   C48       1.0  0.5054875956877032  0.45734347612359233  0.5022750708534361  1.0000
  C   C49       1.0  0.20182914900606233  0.5766460172307029  0.4409587722183257  1.0000
  C   C50       1.0  0.5759841185023117  0.43696146726799046  0.5520788517112556  1.0000
  C   C51       1.0  0.2950332393606872  0.04993479425994481  0.5128474830919731  1.0000
  C   C52       1.0  0.15765674671794686  0.09893184651543592  0.4715348745214196  1.0000
  C   C53       1.0  0.2109908896948429  0.10197211353092053  0.564545756554394  1.0000
  C   C54       1.0  0.4210590854819499  0.9686584574285836  0.41473209525959487  1.0000
  C   C55       1.0  0.5056518676895851  0.9573484116580778  0.503296224932191  1.0000
  C   C56       1.0  0.569063507001624  0.9162265169255025  0.4535367809608474  1.0000
  N   N1        1.0  0.3646395787613658  0.44992531351507975  0.16777389628778544  1.0000
  N   N2        1.0  0.43085499997727156  0.08392305052788199  0.8409085955792326  1.0000
  N   N3        1.0  0.4249516686696166  0.60146034274772  0.8161338467260455  1.0000
  N   N4        1.0  0.36848219566566404  0.9734120203288992  0.18502026875233507  1.0000
  N   N5        1.0  0.23102930794789167  0.5917098158150722  0.5817369606109188  1.0000
  N   N6        1.0  0.32093974365760014  0.5138132602375288  0.4009340321767734  1.0000
  N   N7        1.0  0.33581265205325667  0.05561260188757941  0.6046071616687343  1.0000
  N   N8        1.0  0.21996784258969326  0.058869164062098425  0.4237521850520994  1.0000
  O   O1        1.0  0.9824049324863808  0.14641580568539445  0.34627135124001623  1.0000
  O   O2        1.0  0.7432149437396508  0.30022708148796046  0.3988033134232249  1.0000
  O   O3        1.0  0.006786871253789134  0.711219249680561  0.6595234070255414  1.0000
  O   O4        1.0  0.7559977270140957  0.842764445118465  0.6074815109849552  1.0000
  O   O5        1.0  0.12907414541643147  0.19271810088031016  0.6984363040637442  1.0000
  O   O6        1.0  0.837023141534172  0.3027574301541465  0.6498546790123411  1.0000
  O   O7        1.0  0.0975161108077828  0.6156270652832075  0.3069066761972707  1.0000
  O   O8        1.0  0.8113775178347105  0.7418817440901015  0.35595179548940115  1.0000
  O   O9        1.0  0.012901509766515393  0.6638161674040386  0.4370827897584199  1.0000
  O   O10       1.0  0.022765100533281186  0.1908799870420046  0.5684024735633028  1.0000
