data_image0
_chemical_formula_structural       H26C38N6O6F6S2
_chemical_formula_sum              "H26 C38 N6 O6 F6 S2"
_cell_length_a       5.823768152286948
_cell_length_b       12.503744165183539
_cell_length_c       12.993856545883157
_cell_angle_alpha    114.40725101298129
_cell_angle_beta     93.19862173216764
_cell_angle_gamma    90.66545552643316

_space_group_name_H-M_alt    "P 1"
_space_group_IT_number       1

loop_
  _space_group_symop_operation_xyz
  'x, y, z'

loop_
  _atom_site_type_symbol
  _atom_site_label
  _atom_site_symmetry_multiplicity
  _atom_site_fract_x
  _atom_site_fract_y
  _atom_site_fract_z
  _atom_site_occupancy
  H   H1        1.0  0.48980397432621925  0.3369488493214454  0.5447992936944841  1.0000
  H   H2        1.0  0.5101960265326474  0.663051150164812  0.45520070595117557  1.0000
  H   H3        1.0  0.3810600906530293  0.13588893759277043  0.39701485073113496  1.0000
  H   H4        1.0  0.6189399084860916  0.8641110618938863  0.6029851488734844  1.0000
  H   H5        1.0  0.01348385267821485  0.036110786055349  0.3994528101447101  1.0000
  H   H6        1.0  0.9865161464609061  0.963889213431308  0.6005471894599093  1.0000
  H   H7        1.0  0.7551330594260887  0.12646199369038916  0.5559167269196864  1.0000
  H   H8        1.0  0.24486694149921087  0.8735380066747396  0.4440832730817694  1.0000
  H   H9        1.0  0.3343611569802524  0.6567410540323396  0.8886708907414063  1.0000
  H   H10       1.0  0.665638843882253  0.343258945448588  0.11132910967180312  1.0000
  H   H11       1.0  0.07324882779507168  0.7527131244161201  0.045948506157005964  1.0000
  H   H12       1.0  0.926751171344049  0.24728687507053682  0.9540514934476135  1.0000
  H   H13       1.0  0.7073936871216805  0.6537170510362598  0.04987543157168798  1.0000
  H   H14       1.0  0.29260631208387305  0.34628294932926834  0.9501245683887276  1.0000
  H   H15       1.0  0.5939757734471458  0.4545115777687601  0.9002830869409996  1.0000
  H   H16       1.0  0.40602422569197505  0.5454884217178969  0.09971691266361991  1.0000
  H   H17       1.0  0.7017113736562659  0.29075241544440306  0.7384014243058602  1.0000
  H   H18       1.0  0.2982886254864939  0.7092475840369239  0.2615985760663091  1.0000
  H   H19       1.0  0.3435780250258158  0.2398234608874757  0.17698943814343335  1.0000
  H   H20       1.0  0.6564219759031223  0.7601765394723231  0.8230105626255724  1.0000
  H   H21       1.0  0.45337545766631493  0.43940017466628495  0.32581013488355004  1.0000
  H   H22       1.0  0.546624541472806  0.560599824820372  0.6741898647210693  1.0000
  H   H23       1.0  0.2875747453380927  0.7639926887294357  0.6651168900114581  1.0000
  H   H24       1.0  0.7124252538674609  0.23600731163609256  0.3348831099489575  1.0000
  H   H25       1.0  0.02461652984181536  0.8604989487396485  0.8189640148921689  1.0000
  H   H26       1.0  0.975383469367377  0.13950105162054982  0.18103598583579664  1.0000
  C   C1        1.0  0.33341476137574116  0.2894324933802386  0.5478594333247817  1.0000
  C   C2        1.0  0.6665852378334512  0.7105675069799596  0.4521405674031838  1.0000
  C   C3        1.0  0.2701541613598376  0.18028746061469939  0.46555889787842447  1.0000
  C   C4        1.0  0.729845839502668  0.8197125388662281  0.534441102534785  1.0000
  C   C5        1.0  0.060372448431997926  0.12169037644257355  0.4676052229815295  1.0000
  C   C6        1.0  0.939627550707123  0.8783096230440834  0.5323947766230899  1.0000
  C   C7        1.0  0.9149808600351581  0.1713443234107633  0.5534723429304644  1.0000
  C   C8        1.0  0.08501914089378013  0.8286556769490355  0.4465276578385413  1.0000
  C   C9        1.0  0.9778725243809907  0.28282571352830904  0.6400703563617113  1.0000
  C   C10       1.0  0.022127474824563002  0.7171742868372191  0.3599296435987045  1.0000
  C   C11       1.0  0.18878620841915045  0.344514424617938  0.6386074955716685  1.0000
  C   C12       1.0  0.8112137907199705  0.6554855748687188  0.3613925040329508  1.0000
  C   C13       1.0  0.11214116749732185  0.5014219983238103  0.8054476034369903  1.0000
  C   C14       1.0  0.8878588317118706  0.498578002036388  0.19455239729097526  1.0000
  C   C15       1.0  0.17320466090982975  0.6141744576422574  0.8927451906889557  1.0000
  C   C16       1.0  0.8267953382993626  0.3858255427179408  0.10725481003900986  1.0000
  C   C17       1.0  0.02917197811524387  0.6664918127292775  0.9784569085575806  1.0000
  C   C18       1.0  0.9708280227436229  0.33350818675697996  0.02154309108807886  1.0000
  C   C19       1.0  0.8185537416417218  0.609432540042004  0.9812114883535029  1.0000
  C   C20       1.0  0.18144625750103788  0.390567459439323  0.01878851201866643  1.0000
  C   C21       1.0  0.7537310061206991  0.4997863046868693  0.8994036187628986  1.0000
  C   C22       1.0  0.2462689948046003  0.5002136956782594  0.10059638123855717  1.0000
  C   C23       1.0  0.8995982001345226  0.44443913276628616  0.8108385694681399  1.0000
  C   C24       1.0  0.10040180079077667  0.5555608675988425  0.1891614305333159  1.0000
  C   C25       1.0  0.5019455015814053  0.06746322077836986  0.8567376778665369  1.0000
  C   C26       1.0  0.4980544975577156  0.9325367787082871  0.1432623217380825  1.0000
  C   C27       1.0  0.2313158040872792  0.2840334901610672  0.2452355540374447  1.0000
  C   C28       1.0  0.7686841951182742  0.7159665102044609  0.754764445922971  1.0000
  C   C29       1.0  0.29371523023831453  0.3936890548816892  0.3271422692259539  1.0000
  C   C30       1.0  0.7062847706205522  0.6063109446045682  0.6728577304197055  1.0000
  C   C31       1.0  0.14702820401153724  0.4509274043869493  0.4166856950243123  1.0000
  C   C32       1.0  0.8529717968473295  0.5490725950993081  0.5833143046213473  1.0000
  C   C33       1.0  0.06701263501010356  0.6080066448368313  0.5805594803616597  1.0000
  C   C34       1.0  0.9329873659151958  0.3919933555282973  0.41944051963979606  1.0000
  C   C35       1.0  0.12593239687746016  0.7210594256111698  0.6681432757673653  1.0000
  C   C36       1.0  0.8740676040478391  0.2789405747539587  0.33185672423409046  1.0000
  C   C37       1.0  0.9797402505571186  0.7735382407796343  0.7527713644441024  1.0000
  C   C38       1.0  0.020259750368180708  0.22646175958549433  0.24722863555735344  1.0000
  N   N1        1.0  0.8455400241143729  0.3363362279580266  0.7279482269461304  1.0000
  N   N2        1.0  0.1544599750911807  0.6636637724075016  0.2720517730142853  1.0000
  N   N3        1.0  0.25135316444699773  0.4503101094783423  0.7206066938173377  1.0000
  N   N4        1.0  0.7486468364783015  0.5496898908867863  0.27939330618411823  1.0000
  N   N5        1.0  0.20976164179543663  0.558289269278659  0.49691957057303815  1.0000
  N   N6        1.0  0.7902383590670689  0.44171073020226853  0.5030804298401713  1.0000
  O   O1        1.0  0.4453772797176273  0.04678377604946499  0.6462142047957128  1.0000
  O   O2        1.0  0.5546227194214937  0.9532162234371919  0.35378579480890665  1.0000
  O   O3        1.0  0.5018528392635624  0.24500516712878626  0.7997993973499494  1.0000
  O   O4        1.0  0.49814715987919733  0.7549948323525408  0.20020060302221984  1.0000
  O   O5        1.0  0.1370569567509634  0.1354525897455468  0.7756762161754251  1.0000
  O   O6        1.0  0.8629430441743359  0.8645474106195818  0.2243237838260307  1.0000
  F   F1        1.0  0.731031103550003  0.05191397410678056  0.8479915032451109  1.0000
  F   F2        1.0  0.26896889565555054  0.9480860262587476  0.1520084967153049  1.0000
  F   F3        1.0  0.399335308803184  0.9613279026806194  0.8350823172468707  1.0000
  F   F4        1.0  0.6006646921221154  0.03867209768450921  0.16491768275458515  1.0000
  F   F5        1.0  0.46757786678198715  0.14060521580615254  0.9662865789528036  1.0000
  F   F6        1.0  0.5324221340768795  0.8593947836801049  0.03371342069285586  1.0000
  S   S1        1.0  0.3807825289530233  0.12875293000979782  0.7566361744722487  1.0000
  S   S2        1.0  0.6192174719722761  0.8712470703553308  0.243363825529207  1.0000
