data_image0
_chemical_formula_structural       H72C40N72O8S8
_chemical_formula_sum              "H72 C40 N72 O8 S8"
_cell_length_a       19.357884737819194
_cell_length_b       6.925515491073715
_cell_length_c       15.254935104059738
_cell_angle_alpha    90.0
_cell_angle_beta     96.32181277436938
_cell_angle_gamma    90.0

_space_group_name_H-M_alt    "P 1"
_space_group_IT_number       1

loop_
  _space_group_symop_operation_xyz
  'x, y, z'

loop_
  _atom_site_type_symbol
  _atom_site_label
  _atom_site_symmetry_multiplicity
  _atom_site_fract_x
  _atom_site_fract_y
  _atom_site_fract_z
  _atom_site_occupancy
  H   H1        1.0  0.18674944468484367  0.9008723766543363  0.8906075450283807  1.0000
  H   H2        1.0  0.8132505550900649  0.4008723774538229  0.6093924548570085  1.0000
  H   H3        1.0  0.8132505553503564  0.09912762319062624  0.10939245490796351  1.0000
  H   H4        1.0  0.18674944494513507  0.5991276238350753  0.39060754507933537  1.0000
  H   H5        1.0  0.49313049578217694  0.21799134547397275  0.7430523903454213  1.0000
  H   H6        1.0  0.5068695045687521  0.717991344674486  0.7569476101963218  1.0000
  H   H7        1.0  0.5068695043127397  0.7820086543709898  0.2569476102504513  1.0000
  H   H8        1.0  0.4931304954664478  0.28200865517047646  0.2430523897400223  1.0000
  H   H9        1.0  0.4037532942826189  0.15089140604001242  0.736271892995297  1.0000
  H   H10       1.0  0.5962467054922898  0.6508914066844617  0.7637281068900922  1.0000
  H   H11       1.0  0.5962467057525811  0.8491085938049501  0.2637281069410471  1.0000
  H   H12       1.0  0.4037532945429103  0.3491085946044368  0.23627189304625185  1.0000
  H   H13       1.0  0.6001301775437731  0.28776545696398725  0.4055701270604026  1.0000
  H   H14       1.0  0.39986982275171834  0.7877654576084364  0.09442987292689631  1.0000
  H   H15       1.0  0.39986982249142694  0.7122345428809753  0.5944298728759414  1.0000
  H   H16       1.0  0.6001301772834816  0.2122345422365261  0.9055701270094477  1.0000
  H   H17       1.0  0.684892589876337  0.3880637756805206  0.4261922709630465  1.0000
  H   H18       1.0  0.3151074099028504  0.8880637763249698  0.07380772902742709  1.0000
  H   H19       1.0  0.31510741015886296  0.6119362241644419  0.5738077289732976  1.0000
  H   H20       1.0  0.6848925896757623  0.1119362235199928  0.9261922715716201  1.0000
  H   H21       1.0  0.8141063190248119  0.5507082144160645  0.16480108430728652  1.0000
  H   H22       1.0  0.18589368127067954  0.05070821377161541  0.3351989156800124  1.0000
  H   H23       1.0  0.18589368107010465  0.4492917854288979  0.835198916288586  1.0000
  H   H24       1.0  0.8141063187645206  0.9492917860733471  0.6648010842563317  1.0000
  H   H25       1.0  0.08758418713131093  0.07848067060142179  0.7553141035429133  1.0000
  H   H26       1.0  0.9124158127033142  0.5784806698019351  0.7446858970020045  1.0000
  H   H27       1.0  0.9124158129636057  0.9215193292435407  0.24468589705295926  1.0000
  H   H28       1.0  0.08758418739160233  0.4215193300430274  0.25531410359386814  1.0000
  H   H29       1.0  0.9964183425043149  0.013516728122354816  0.7331355557371894  1.0000
  H   H30       1.0  0.0035816573303103266  0.513516728766804  0.7668644448077284  1.0000
  H   H31       1.0  0.003581657530885186  0.9864832717226076  0.2668644441991547  1.0000
  H   H32       1.0  0.9964183422483022  0.48648327107815853  0.23313555579131887  1.0000
  H   H33       1.0  0.06257958984524298  0.8357593694592449  0.7229559437683077  1.0000
  H   H34       1.0  0.9374204099296657  0.3357593688147957  0.7770440561170815  1.0000
  H   H35       1.0  0.9374204101899569  0.16424063038571768  0.2770440561680363  1.0000
  H   H36       1.0  0.06257959010553438  0.6642406310301668  0.2229559438192626  1.0000
  H   H37       1.0  0.053472117696889115  0.09722170297183347  0.9931720283637411  1.0000
  H   H38       1.0  0.9465278825943235  0.5972217021723468  0.5068279715184735  1.0000
  H   H39       1.0  0.946527882338311  0.9027782968731292  0.006827971572602976  1.0000
  H   H40       1.0  0.05347211744087661  0.40277829767261575  0.4931720284178706  1.0000
  H   H41       1.0  0.9928357596812998  0.18620804930147744  0.9039515521281347  1.0000
  H   H42       1.0  0.007164240093608927  0.6862080485019908  0.5960484477572544  1.0000
  H   H43       1.0  0.00716424035390033  0.8137919519874208  0.09604844780820929  1.0000
  H   H44       1.0  0.9928357599415911  0.3137919513429717  0.4039515521790896  1.0000
  H   H45       1.0  0.08651710571718503  0.21342940347258366  0.9018925649589494  1.0000
  H   H46       1.0  0.9134828941174401  0.7134294041170328  0.5981074355859684  1.0000
  H   H47       1.0  0.913482894318015  0.7865705963723789  0.09810743497739464  1.0000
  H   H48       1.0  0.08651710546117251  0.2865705957279297  0.4018925650130789  1.0000
  H   H49       1.0  0.6728284609402441  0.6040744036154624  0.9755041161908179  1.0000
  H   H50       1.0  0.3271715388346646  0.10407440297101318  0.5244958836945712  1.0000
  H   H51       1.0  0.327171539094956  0.39592559767343605  0.024495883745526102  1.0000
  H   H52       1.0  0.6728284612005353  0.8959255968739493  0.47550411624177286  1.0000
  H   H53       1.0  0.7066424897400346  0.5289985452667014  0.8764298845844568  1.0000
  H   H54       1.0  0.29335751061089455  0.028998546066188038  0.6235701159572863  1.0000
  H   H55       1.0  0.29335751029516544  0.47100145457826115  0.12357011535188736  1.0000
  H   H56       1.0  0.7066424894840221  0.9710014537787744  0.3764298846385862  1.0000
  H   H57       1.0  0.7346299499834412  0.7558809733004294  0.9279254316225921  1.0000
  H   H58       1.0  0.2653700503077713  0.25588097265598014  0.5720745682596224  1.0000
  H   H59       1.0  0.2653700500517588  0.2441190265445332  0.07207456831375189  1.0000
  H   H60       1.0  0.7346299497274288  0.7441190271889824  0.42792543167672165  1.0000
  H   H61       1.0  0.862207606659781  0.6521874878226194  0.9159090741091351  1.0000
  H   H62       1.0  0.13779239363143153  0.1521874871781702  0.5840909257730795  1.0000
  H   H63       1.0  0.137792393375419  0.347812513466279  0.08409092582720899  1.0000
  H   H64       1.0  0.8622076064037686  0.8478125126667924  0.41590907416326456  1.0000
  H   H65       1.0  0.8318152270286475  0.4259554315923775  0.8669944713088341  1.0000
  H   H66       1.0  0.16818477274626112  0.9259554322368266  0.6330055285765551  1.0000
  H   H67       1.0  0.16818477300655255  0.5740445682525851  0.13300552862750994  1.0000
  H   H68       1.0  0.8318152272889389  0.07404456760813588  0.36699447135978897  1.0000
  H   H69       1.0  0.8978092759912325  0.42541601903820514  0.9600981404708382  1.0000
  H   H70       1.0  0.10219072378367612  0.9254160196826544  0.539901859414551  1.0000
  H   H71       1.0  0.10219072404396752  0.5745839808067573  0.03990185946550587  1.0000
  H   H72       1.0  0.897809276251524  0.07458398016230819  0.46009814052179304  1.0000
  C   C1        1.0  0.33148568146596574  0.08473281025164832  0.878270166342079  1.0000
  C   C2        1.0  0.6685143188252468  0.5847328108960975  0.6217298335401354  1.0000
  C   C3        1.0  0.6685143185692344  0.9152671895933142  0.12172983359426508  1.0000
  C   C4        1.0  0.3314856812099532  0.415267188948865  0.3782701663962085  1.0000
  C   C5        1.0  0.45159039977181004  0.2045844719900171  0.8587465847467919  1.0000
  C   C6        1.0  0.5484096005194026  0.7045844726344663  0.6412534151354226  1.0000
  C   C7        1.0  0.54840960026339  0.7954155278549454  0.1412534151895521  1.0000
  C   C8        1.0  0.45159039951579744  0.29541552721049624  0.3587465848009214  1.0000
  C   C9        1.0  0.48286496512058485  0.2328877976056545  0.9963696667750397  1.0000
  C   C10       1.0  0.5171350346543238  0.7328877982501036  0.5036303331103493  1.0000
  C   C11       1.0  0.5171350349146151  0.7671122022393081  0.003630333161304219  1.0000
  C   C12       1.0  0.48286496538087637  0.26711220303879474  0.4963696668259947  1.0000
  C   C13       1.0  0.6163250873200912  0.3524960132060177  0.1576960402606092  1.0000
  C   C14       1.0  0.38367491245909635  0.8524960124065311  0.3423039597298644  1.0000
  C   C15       1.0  0.38367491219880495  0.6475039880828807  0.8423039596789095  1.0000
  C   C16       1.0  0.6163250875761036  0.14750398743843152  0.6576960402064796  1.0000
  C   C17       1.0  0.6445753834843112  0.35203676219371405  0.2967569708269192  1.0000
  C   C18       1.0  0.35542461629487637  0.8520367613942273  0.20324302916355436  1.0000
  C   C19       1.0  0.35542461655088886  0.6479632376512485  0.7032430291094249  1.0000
  C   C20       1.0  0.6445753837403236  0.1479632384507351  0.7967569707727896  1.0000
  C   C21       1.0  0.7668462108199561  0.4625497284828618  0.2861401018672032  1.0000
  C   C22       1.0  0.23315378947553542  0.9625497276833752  0.21385989812009573  1.0000
  C   C23       1.0  0.23315378921524396  0.5374502713621008  0.713859898069141  1.0000
  C   C24       1.0  0.7668462105596646  0.037450272161587375  0.7861401018162483  1.0000
  C   C25       1.0  0.048643985318637305  0.9647064826598462  0.7587721088055422  1.0000
  C   C26       1.0  0.9513560149725752  0.46470648201539694  0.7412278910766723  1.0000
  C   C27       1.0  0.9513560147165628  0.03529351862905224  0.24122789113080187  1.0000
  C   C28       1.0  0.04864398506262481  0.5352935178295656  0.2587721088596717  1.0000
  C   C29       1.0  0.04443080094938212  0.1229965409936491  0.9218882172584897  1.0000
  C   C30       1.0  0.9555691993418304  0.6229965416380983  0.5781117826237249  1.0000
  C   C31       1.0  0.955569199085818  0.8770034588513135  0.07811178267785439  1.0000
  C   C32       1.0  0.04443080069336962  0.3770034582068642  0.4218882173126192  1.0000
  C   C33       1.0  0.7182700009346513  0.6071813911065356  0.9387249663367776  1.0000
  C   C34       1.0  0.2817299994162777  0.10718139046208643  0.5612750342049653  1.0000
  C   C35       1.0  0.2817299991005487  0.3928186087384269  0.06127503359956639  1.0000
  C   C36       1.0  0.7182700006786389  0.8928186093828762  0.43872496639090713  1.0000
  C   C37       1.0  0.8517973041761794  0.49950514506230265  0.9281073949166161  1.0000
  C   C38       1.0  0.1482026961150332  0.999505144262816  0.5718926049655984  1.0000
  C   C39       1.0  0.14820269585902068  0.5004948547826599  0.07189260501972791  1.0000
  C   C40       1.0  0.8517973039201668  0.0004948555821465163  0.4281073949707457  1.0000
  N   N1        1.0  0.2881150163086287  0.008379959596480855  0.9315398736195885  1.0000
  N   N2        1.0  0.7118849834662799  0.50837996024093  0.5684601262658007  1.0000
  N   N3        1.0  0.7118849832102674  0.9916200402484816  0.06846012631993016  1.0000
  N   N4        1.0  0.2881150165689201  0.4916200396040325  0.43153987367054336  1.0000
  N   N5        1.0  0.23419037339013507  0.9642037417440994  0.8737671682651327  1.0000
  N   N6        1.0  0.76580962644449  0.4642037410996503  0.6262328322797851  1.0000
  N   N7        1.0  0.7658096266450649  0.03579625954479889  0.1262328316712115  1.0000
  N   N8        1.0  0.2341903736504265  0.5357962587453122  0.3737671683160875  1.0000
  N   N9        1.0  0.24224625300038366  0.006761219444293002  0.791047432522448  1.0000
  N   N10       1.0  0.7577537467745249  0.5067612200887421  0.7089525673629411  1.0000
  N   N11       1.0  0.7577537470348165  0.9932387804006695  0.208952567413896  1.0000
  N   N12       1.0  0.2422462532606751  0.4932387812001562  0.2910474325734029  1.0000
  N   N13       1.0  0.30504216010375473  0.08552648546717337  0.7922132677272214  1.0000
  N   N14       1.0  0.6949578396711539  0.5855264846676868  0.7077867321581678  1.0000
  N   N15       1.0  0.6949578399314453  0.9144735143777892  0.20778673220912264  1.0000
  N   N16       1.0  0.3050421603640462  0.4144735151772758  0.2922132677781763  1.0000
  N   N17       1.0  0.39698382284187084  0.15368198964709692  0.9077281505651122  1.0000
  N   N18       1.0  0.6030161775090582  0.6536819902915462  0.5922718499766308  1.0000
  N   N19       1.0  0.6030161772530457  0.8463180101978656  0.09227185003076034  1.0000
  N   N20       1.0  0.3969838225261418  0.3463180095534164  0.40772814995971324  1.0000
  N   N21       1.0  0.4470722157172262  0.205308464306035  0.771096176845363  1.0000
  N   N22       1.0  0.5529277840576824  0.7053084649504842  0.7289038230400262  1.0000
  N   N23       1.0  0.5529277838016698  0.7946915355389276  0.2289038230941557  1.0000
  N   N24       1.0  0.4470722159775176  0.2946915363384142  0.27109617689631793  1.0000
  N   N25       1.0  0.5060826466119333  0.25509923157013925  0.9153169193420884  1.0000
  N   N26       1.0  0.49391735316297536  0.7550992307706526  0.5846830805433009  1.0000
  N   N27       1.0  0.49391735342326676  0.7449007682748233  0.08468308059425574  1.0000
  N   N28       1.0  0.5060826468722246  0.24490076907430997  0.41531691939304316  1.0000
  N   N29       1.0  0.4173822775014947  0.17098552757932106  0.99570657712226  1.0000
  N   N30       1.0  0.5826177227897178  0.6709855282237703  0.5042934227599546  1.0000
  N   N31       1.0  0.5826177225337053  0.8290144722656415  0.0042934228140841055  1.0000
  N   N32       1.0  0.4173822772454822  0.32901447162119224  0.4957065771763895  1.0000
  N   N33       1.0  0.5192808835139103  0.26485565476882944  0.0778211359655443  1.0000
  N   N34       1.0  0.4807191162652773  0.7648556554132786  0.4221788640249293  1.0000
  N   N35       1.0  0.4807191165212898  0.7351443450761331  0.9221788639707997  1.0000
  N   N36       1.0  0.5192808837699228  0.23514434443168392  0.5778211359114148  1.0000
  N   N37       1.0  0.581014654829895  0.32853881749779223  0.07433666310088625  1.0000
  N   N38       1.0  0.41898534494929246  0.8285388181422414  0.42566333688958735  1.0000
  N   N39       1.0  0.41898534520530506  0.6714611823471703  0.9256633368354578  1.0000
  N   N40       1.0  0.5810146545696037  0.17146118314665695  0.5743366630499314  1.0000
  N   N41       1.0  0.6811012480817131  0.42156957034650355  0.16323566222505706  1.0000
  N   N42       1.0  0.3188987522734949  0.9215695709909527  0.3367643384217704  1.0000
  N   N43       1.0  0.3188987520132035  0.578430429498459  0.8367643383708155  1.0000
  N   N44       1.0  0.6811012478214217  0.07843043029794568  0.6632356621741021  1.0000
  N   N45       1.0  0.6995124950838827  0.4220951702104691  0.25280967732208387  1.0000
  N   N46       1.0  0.30048750469530483  0.9220951708549183  0.24719032266838967  1.0000
  N   N47       1.0  0.30048750443501343  0.5779048296344934  0.7471903226174348  1.0000
  N   N48       1.0  0.6995124953398951  0.07790483043398008  0.7528096772679544  1.0000
  N   N49       1.0  0.591848174298448  0.3085920524984141  0.23603343598353668  1.0000
  N   N50       1.0  0.4081518254807394  0.8085920531428633  0.26396656400693685  1.0000
  N   N51       1.0  0.4081518257367519  0.6914079473465484  0.7639665639528075  1.0000
  N   N52       1.0  0.5918481745544606  0.1914079467020992  0.7360334359294072  1.0000
  N   N53       1.0  0.6467951617741304  0.3280280482987977  0.3833020668364382  1.0000
  N   N54       1.0  0.3532048385213609  0.8280280489432469  0.11669793315086076  1.0000
  N   N55       1.0  0.35320483826106946  0.6719719515461648  0.6166979330999058  1.0000
  N   N56       1.0  0.6467951615138392  0.17197195090171566  0.8833020667854833  1.0000
  N   N57       1.0  0.7928073775684028  0.45045669654784615  0.370836076183729  1.0000
  N   N58       1.0  0.2071926222107848  0.9504566957483596  0.1291639238067446  1.0000
  N   N59       1.0  0.2071926224667973  0.5495433032971164  0.6291639237526151  1.0000
  N   N60       1.0  0.7928073778244152  0.049543304096603014  0.8708360761295995  1.0000
  N   N61       1.0  0.8611325663388097  0.49682002941654774  0.3712019157685518  1.0000
  N   N62       1.0  0.1388674339566818  0.996820030060997  0.12879808421874708  1.0000
  N   N63       1.0  0.13886743369639037  0.5031799704284148  0.6287980841677921  1.0000
  N   N64       1.0  0.8611325660785183  0.003179969783965586  0.871201915717597  1.0000
  N   N65       1.0  0.8758998141712008  0.5351413515393655  0.2912789540465923  1.0000
  N   N66       1.0  0.12410018560798675  0.0351413508949163  0.2087210459438813  1.0000
  N   N67       1.0  0.12410018586399926  0.4648586483055971  0.7087210458897519  1.0000
  N   N68       1.0  0.8758998144272132  0.9648586489500462  0.7912789539924628  1.0000
  N   N69       1.0  0.8168564359368512  0.5140663109610689  0.23629747265773768  1.0000
  N   N70       1.0  0.18314356384233635  0.014066311760555573  0.26370252733273586  1.0000
  N   N71       1.0  0.18314356358204495  0.4859336888838936  0.763702527281781  1.0000
  N   N72       1.0  0.8168564361928637  0.985933688084407  0.7362974726036082  1.0000
  O   O1        1.0  0.11611112265421576  0.800328308722139  0.9017224995957571  1.0000
  O   O2        1.0  0.8838888776369968  0.30032830952162565  0.5982775002864573  1.0000
  O   O3        1.0  0.8838888773809844  0.19967169112282349  0.09827750034058688  1.0000
  O   O4        1.0  0.11611112239820327  0.6996716917672727  0.4017224996498867  1.0000
  O   O5        1.0  0.8130025044049927  0.625464067704862  0.07743630255973268  1.0000
  O   O6        1.0  0.18699749589049877  0.12546406706041277  0.4225636974275663  1.0000
  O   O7        1.0  0.18699749563020734  0.3745359321401006  0.9225636973766115  1.0000
  O   O8        1.0  0.8130025041447013  0.8745359327845498  0.5774363025087779  1.0000
  S   S1        1.0  0.04548488248948711  0.8885685040964266  0.8713169025417259  1.0000
  S   S2        1.0  0.9545151172854216  0.38856850489591327  0.6286830973436631  1.0000
  S   S3        1.0  0.954515117029409  0.11143149574853588  0.1286830973977927  1.0000
  S   S4        1.0  0.04548488274977852  0.6114314949490492  0.37131690259268085  1.0000
  S   S5        1.0  0.787060763773144  0.4834257383894666  0.0034093652420077686  1.0000
  S   S6        1.0  0.21293923600604348  0.98342573758998  0.4965906347484658  1.0000
  S   S7        1.0  0.21293923626205602  0.5165742628994318  0.9965906346943363  1.0000
  S   S8        1.0  0.7870607640291566  0.01657426225498255  0.5034093651878783  1.0000
