data_image0
_chemical_formula_structural       H120C108N8O12Cl8
_chemical_formula_sum              "H120 C108 N8 O12 Cl8"
_cell_length_a       12.243179468720301
_cell_length_b       12.653885335343864
_cell_length_c       15.699077172053038
_cell_angle_alpha    90.0
_cell_angle_beta     90.0
_cell_angle_gamma    90.0

_space_group_name_H-M_alt    "P 1"
_space_group_IT_number       1

loop_
  _space_group_symop_operation_xyz
  'x, y, z'

loop_
  _atom_site_type_symbol
  _atom_site_label
  _atom_site_symmetry_multiplicity
  _atom_site_fract_x
  _atom_site_fract_y
  _atom_site_fract_z
  _atom_site_occupancy
  H   H1        1.0  0.3800806409714738  0.869337396259966  0.7790448576029639  1.0000
  H   H2        1.0  0.11991935867239725  0.13066260331772397  0.27904485734986106  1.0000
  H   H3        1.0  0.880080641432126  0.6306626035017044  0.2209551429032418  1.0000
  H   H4        1.0  0.6199193591330496  0.36933739607598537  0.7209551425193645  1.0000
  H   H5        1.0  0.46354575986569274  0.8675145221474929  0.6866884436488315  1.0000
  H   H6        1.0  0.03645423977817834  0.1324854782204681  0.1866884440327088  1.0000
  H   H7        1.0  0.9635457595095637  0.6324854776141775  0.313311556220394  1.0000
  H   H8        1.0  0.5364542402388307  0.36751452196351236  0.8133115558365168  1.0000
  H   H9        1.0  0.4769792287142214  0.7254462804684917  0.8346395457769735  1.0000
  H   H10       1.0  0.02302077092964967  0.2745537191091981  0.33463954616085073  1.0000
  H   H11       1.0  0.9769792283580924  0.7745537192931785  0.16536045409225214  1.0000
  H   H12       1.0  0.523020771390302  0.2254462810747824  0.6653604537083748  1.0000
  H   H13       1.0  0.47524287501179363  0.5539377901917364  0.7572830759226894  1.0000
  H   H14       1.0  0.024757124632077424  0.4460622093859534  0.2572830756695865  1.0000
  H   H15       1.0  0.9752428754724459  0.9460622095699339  0.24271692458351632  1.0000
  H   H16       1.0  0.5247571242759484  0.05393779000775597  0.7427169241996391  1.0000
  H   H17       1.0  0.38025743818379354  0.546541794612529  0.6157428805565809  1.0000
  H   H18       1.0  0.11974256227685881  0.4534582057554319  0.11574288030347808  1.0000
  H   H19       1.0  0.8802574378276645  0.9534582051491413  0.38425711931264467  1.0000
  H   H20       1.0  0.6197425619207299  0.046541794428548604  0.8842571195657475  1.0000
  H   H21       1.0  0.5054655627495137  0.6161508171899464  0.6085431267900849  1.0000
  H   H22       1.0  0.9945344369988807  0.38384918238774357  0.1085431265369821  1.0000
  H   H23       1.0  0.00546556310564271  0.8838491825717241  0.3914568730791407  1.0000
  H   H24       1.0  0.4945344373550096  0.11615081779623695  0.8914568733322435  1.0000
  H   H25       1.0  0.42392209746333914  0.7730632687714466  0.5768034133955278  1.0000
  H   H26       1.0  0.07607790299731323  0.22693673080624327  0.07680341314242484  1.0000
  H   H27       1.0  0.9239220971072102  0.7269367309902238  0.4231965864736979  1.0000
  H   H28       1.0  0.5760779026411843  0.2730632693777372  0.9231965867268007  1.0000
  H   H29       1.0  0.17719815800648067  0.690906258300026  0.6941777157067651  1.0000
  H   H30       1.0  0.3228018424541717  0.30909374127766376  0.1941777154536623  1.0000
  H   H31       1.0  0.6771981576503517  0.8090937414616444  0.30582228479944057  1.0000
  H   H32       1.0  0.8228018420980427  0.1909062589063167  0.8058222844155634  1.0000
  H   H33       1.0  0.2165285338480047  0.7658410704048517  0.7832124834629395  1.0000
  H   H34       1.0  0.28347146661264766  0.23415892917283823  0.2832124832098366  1.0000
  H   H35       1.0  0.7165285334918757  0.7341589293568187  0.21678751640628616  1.0000
  H   H36       1.0  0.7834714662565186  0.26584107022087117  0.7167875166593889  1.0000
  H   H37       1.0  0.3124900610805057  0.620233931477041  0.8386672927143898  1.0000
  H   H38       1.0  0.18750993938014668  0.3797660681006489  0.3386672930982671  1.0000
  H   H39       1.0  0.8124900607243767  0.8797660682846293  0.16133270715483577  1.0000
  H   H40       1.0  0.6875099390240177  0.12023393129306051  0.6613327074079386  1.0000
  H   H41       1.0  0.2705843109188913  0.5439168743513011  0.7500996626071121  1.0000
  H   H42       1.0  0.2294156895417611  0.4560831260166599  0.2500996623540093  1.0000
  H   H43       1.0  0.7705843105627622  0.9560831254103692  0.24990033789909355  1.0000
  H   H44       1.0  0.7294156891856322  0.0439168741673206  0.7499003375152162  1.0000
  H   H45       1.0  0.6425390251036037  0.6564900234078387  0.7524839919272225  1.0000
  H   H46       1.0  0.8574609746447908  0.3435099761698512  0.2524839916741196  1.0000
  H   H47       1.0  0.1425390254597327  0.8435099763538316  0.24751600794200315  1.0000
  H   H48       1.0  0.35746097500091956  0.15649002322385822  0.747516008195106  1.0000
  H   H49       1.0  0.6084386305887107  0.7446204869331505  0.6698982471862499  1.0000
  H   H50       1.0  0.8915613691596838  0.2553795126445394  0.16989824693314715  1.0000
  H   H51       1.0  0.10843863094483976  0.7553795128285199  0.33010175268297565  1.0000
  H   H52       1.0  0.39156136951581255  0.24462048753944107  0.8301017529360785  1.0000
  H   H53       1.0  0.748679201625563  0.8251873897446098  0.7623031881965686  1.0000
  H   H54       1.0  0.7513207989396127  0.17481260983308003  0.2623031885804459  1.0000
  H   H55       1.0  0.24867920116491068  0.6748126100170605  0.23769681167265702  1.0000
  H   H56       1.0  0.2513207984789604  0.32518738956062937  0.7376968112887797  1.0000
  H   H57       1.0  0.6644626937622039  0.8082549714144435  0.8539057329983746  1.0000
  H   H58       1.0  0.8355373068029719  0.1917450281632464  0.35390573338225195  1.0000
  H   H59       1.0  0.16446269330155155  0.691745028347227  0.14609426687085092  1.0000
  H   H60       1.0  0.3355373063423195  0.3082549720207341  0.6460942664869737  1.0000
  H   H61       1.0  0.6256376498906805  0.8979403383926136  0.7726940715722102  1.0000
  H   H62       1.0  0.8743623506744952  0.1020596619753474  0.2726940713191073  1.0000
  H   H63       1.0  0.12563764943002817  0.6020596621593278  0.22730592893399557  1.0000
  H   H64       1.0  0.37436235021384284  0.39794033820863306  0.7273059285501183  1.0000
  H   H65       1.0  0.21588832514894693  0.7670858651522803  0.5397541637087108  1.0000
  H   H66       1.0  0.2841116744949241  0.23291413521568072  0.03975416409258808  1.0000
  H   H67       1.0  0.7158883256095993  0.7329141353996611  0.4602458361605148  1.0000
  H   H68       1.0  0.7841116749555763  0.2670858649682998  0.9602458357766376  1.0000
  H   H69       1.0  0.958377139694615  0.5141054362038138  0.41541462523730865  1.0000
  H   H70       1.0  0.5416228600537794  0.4858945633738761  0.9154146254904115  1.0000
  H   H71       1.0  0.4583771392339628  0.9858945635578567  0.5845853746319168  1.0000
  H   H72       1.0  0.04162286040990827  0.014105436810104432  0.08458537501579419  1.0000
  H   H73       1.0  0.8643522384881049  0.34105259417405054  0.4351499432183899  1.0000
  H   H74       1.0  0.6356477612602894  0.6589474054036394  0.9351499434714928  1.0000
  H   H75       1.0  0.3643522388442339  0.15894740600992996  0.5648500566508358  1.0000
  H   H76       1.0  0.13564776079963714  0.841052594358031  0.06485005703471297  1.0000
  H   H77       1.0  0.08805963048687465  0.2637205752670364  0.6384397127394501  1.0000
  H   H78       1.0  0.41194036915699644  0.7362794251009246  0.13843971248634726  1.0000
  H   H79       1.0  0.588059630947527  0.23627942491694404  0.3615602871297755  1.0000
  H   H80       1.0  0.9119403696176488  0.7637205746607458  0.8615602873828784  1.0000
  H   H81       1.0  0.1848728425310408  0.43389147163081987  0.6149880438314583  1.0000
  H   H82       1.0  0.31512715792961155  0.5661085287371411  0.11498804357835546  1.0000
  H   H83       1.0  0.6848728421749118  0.0661085285531606  0.3850119560377673  1.0000
  H   H84       1.0  0.8151271575734826  0.9338914710245293  0.8850119562908701  1.0000
  H   H85       1.0  0.37288541768612826  0.5368194716469198  0.4569533018648037  1.0000
  H   H86       1.0  0.12711458195774275  0.46318052872104115  0.9569533021179065  1.0000
  H   H87       1.0  0.8728854173299994  0.9631805281147505  0.543046698004422  1.0000
  H   H88       1.0  0.6271145824183951  0.03681947146293934  0.04304669775131907  1.0000
  H   H89       1.0  0.49264374547557255  0.5417691182052824  0.3297743105063647  1.0000
  H   H90       1.0  0.00735625498507977  0.45823088216267854  0.8297743107594675  1.0000
  H   H91       1.0  0.9926437451194436  0.958230882346659  0.670225689362861  1.0000
  H   H92       1.0  0.5073562546289508  0.04176911802130196  0.17022568974673816  1.0000
  H   H93       1.0  0.4985663459067153  0.881085210947743  0.2328133488321483  1.0000
  H   H94       1.0  0.001433653737155798  0.11891478942021798  0.7328133484482711  1.0000
  H   H95       1.0  0.9985663455505862  0.6189147888139274  0.7671866516740574  1.0000
  H   H96       1.0  0.5014336541978082  0.3810852107637625  0.26718665142095455  1.0000
  H   H97       1.0  0.4126575015017792  0.059341527135751825  0.285519959604977  1.0000
  H   H98       1.0  0.08734249895887315  0.940658472441938  0.7855199592210997  1.0000
  H   H99       1.0  0.9126575011456503  0.44065847304822864  0.7144800409012287  1.0000
  H   H100      1.0  0.5873424986027442  0.5593415273197323  0.21448004064812584  1.0000
  H   H101      1.0  0.2422551746119273  0.8987678391737969  0.47711127398837244  1.0000
  H   H102      1.0  0.25774482584872505  0.10123216119416414  0.9771112736044952  1.0000
  H   H103      1.0  0.7422551742557983  0.6012321605878735  0.5228887258808531  1.0000
  H   H104      1.0  0.757744825492596  0.3987678389898163  0.022888726264730413  1.0000
  H   H105      1.0  0.1368955714716142  0.16113000362861224  0.4400273235357698  1.0000
  H   H106      1.0  0.3631044281722568  0.8388699959490776  0.9400273237888727  1.0000
  H   H107      1.0  0.6368955719322665  0.33886999655536826  0.5599726763334557  1.0000
  H   H108      1.0  0.8631044286329091  0.6611300038125927  0.05997267671733305  1.0000
  H   H109      1.0  0.20440126246565363  0.06774379151403187  0.508302870451871  1.0000
  H   H110      1.0  0.29559873799499875  0.9322562080636579  0.008302870198768117  1.0000
  H   H111      1.0  0.7044012621095247  0.4322562086699486  0.49169712941735466  1.0000
  H   H112      1.0  0.7955987376388698  0.5677437916980124  0.9916971296704574  1.0000
  H   H113      1.0  0.10397493014394704  0.022977480220078103  0.43301733761150746  1.0000
  H   H114      1.0  0.3960250703167053  0.9770225201478828  0.9330173378646103  1.0000
  H   H115      1.0  0.6039749297878181  0.4770225199639024  0.5669826622577181  1.0000
  H   H116      1.0  0.8960250699605763  0.5229774804040586  0.06698266200461526  1.0000
  H   H117      1.0  0.9703134312742138  0.0745242686343952  0.8360824261292228  1.0000
  H   H118      1.0  0.529686569290962  0.9254757309432947  0.33608242587611986  1.0000
  H   H119      1.0  0.4703134308135613  0.4254757315495853  0.16391757437698304  1.0000
  H   H120      1.0  0.02968656883030972  0.5745242688183757  0.6639175739931057  1.0000
  C   C1        1.0  0.41229481793487205  0.8183487858133496  0.728559420063303  1.0000
  C   C2        1.0  0.08770518170899902  0.18165121455461147  0.22855942044718025  1.0000
  C   C3        1.0  0.9122948183955244  0.6816512147385919  0.27144057980592257  1.0000
  C   C4        1.0  0.5877051821696514  0.318348785629369  0.7714405794220454  1.0000
  C   C5        1.0  0.48184449595564216  0.7251172929765337  0.7644010337985144  1.0000
  C   C6        1.0  0.018155503688228918  0.27488270660115616  0.26440103354541156  1.0000
  C   C7        1.0  0.9818444964162945  0.7748827067851367  0.23559896607071118  1.0000
  C   C8        1.0  0.5181555041488812  0.22511729358282434  0.735598966323814  1.0000
  C   C9        1.0  0.42774827269173316  0.6218151122345523  0.7338572938866166  1.0000
  C   C10       1.0  0.07225172776891921  0.37818488813340867  0.23385729363351376  1.0000
  C   C11       1.0  0.9277482723356041  0.8781848883173893  0.26614270598260903  1.0000
  C   C12       1.0  0.5722517274127903  0.1218151120505718  0.7661427062357118  1.0000
  C   C13       1.0  0.42296742633155815  0.618682287102237  0.6359510104054332  1.0000
  C   C14       1.0  0.07703257331231285  0.3813177132657239  0.13595101015233035  1.0000
  C   C15       1.0  0.9229674259754294  0.8813177134497043  0.3640489901007725  1.0000
  C   C16       1.0  0.5770325737729651  0.1186822869182566  0.8640489897168953  1.0000
  C   C17       1.0  0.3627861440198472  0.7205206399756142  0.6058445809115147  1.0000
  C   C18       1.0  0.1372138556240238  0.2794793596020757  0.10584458065841186  1.0000
  C   C19       1.0  0.8627861444804995  0.7794793597860562  0.3941554189577109  1.0000
  C   C20       1.0  0.6372138552678949  0.2205206397916337  0.8941554192108138  1.0000
  C   C21       1.0  0.24798073553987857  0.7152099967842853  0.7321077305397407  1.0000
  C   C22       1.0  0.25201926410399245  0.28479000279340455  0.2321077302866379  1.0000
  C   C23       1.0  0.7479807360005309  0.7847900029773851  0.2678922693294849  1.0000
  C   C24       1.0  0.7520192645646449  0.21520999739057595  0.7678922695825877  1.0000
  C   C25       1.0  0.31058077517485333  0.6183191188042627  0.7685504286505866  1.0000
  C   C26       1.0  0.18941922528579905  0.3816808807734272  0.26855042839748366  1.0000
  C   C27       1.0  0.8105807748187244  0.8816808809574077  0.23144957121863904  1.0000
  C   C28       1.0  0.6894192249296701  0.11831911941055331  0.7314495714717419  1.0000
  C   C29       1.0  0.6021606919048605  0.7322241196638926  0.7390251339520457  1.0000
  C   C30       1.0  0.8978393078435339  0.26777587991379737  0.23902513369894293  1.0000
  C   C31       1.0  0.10216069144420822  0.7677758800977779  0.26097486591717983  1.0000
  C   C32       1.0  0.3978393081996628  0.23222412027018313  0.7609748661702826  1.0000
  C   C33       1.0  0.663608142048188  0.820637018180931  0.7844568801740263  1.0000
  C   C34       1.0  0.8363918577002065  0.17936298139675877  0.2844568799209234  1.0000
  C   C35       1.0  0.1636081415875356  0.6793629815807393  0.21554312033217948  1.0000
  C   C36       1.0  0.3363918580563354  0.3206370179969506  0.7155431199483022  1.0000
  C   C37       1.0  0.2766400785558374  0.7035786712190927  0.5355016150226742  1.0000
  C   C38       1.0  0.22335992108803362  0.29642132835859714  0.03550161476957144  1.0000
  C   C39       1.0  0.7766400790164898  0.7964213285425775  0.46449838484655126  1.0000
  C   C40       1.0  0.723359921548686  0.2035786710351123  0.9644983850996541  1.0000
  C   C41       1.0  0.1279657056406572  0.5904451259038509  0.5013167706449829  1.0000
  C   C42       1.0  0.3720342940032138  0.4095548744641101  0.0013167710288602029  1.0000
  C   C43       1.0  0.6279657061013095  0.9095548738578195  0.4986832292242427  1.0000
  C   C44       1.0  0.8720342944638663  0.09044512571987039  0.9986832288403653  1.0000
  C   C45       1.0  0.07752136464427765  0.48491899976848135  0.5136185536022511  1.0000
  C   C46       1.0  0.4224786349995934  0.5150810005994797  0.013618553349148268  1.0000
  C   C47       1.0  0.57752136510493  0.015081000415499196  0.4863814462669745  1.0000
  C   C48       1.0  0.9224786346434644  0.9849189991621907  0.9863814465200773  1.0000
  C   C49       1.0  0.9871122301912321  0.45836437791953366  0.4631942916329422  1.0000
  C   C50       1.0  0.5128877695571624  0.5416356216581563  0.963194291249065  1.0000
  C   C51       1.0  0.48711223054736097  0.0416356214741757  0.5368057088732635  1.0000
  C   C52       1.0  0.012887769913291361  0.9583643781035142  0.036805708620160665  1.0000
  C   C53       1.0  0.9341624558571832  0.36228507596757226  0.4744429292480477  1.0000
  C   C54       1.0  0.5658375447079925  0.6377149244003887  0.9744429295011506  1.0000
  C   C55       1.0  0.4341624553965308  0.13771492421640824  0.5255570706211778  1.0000
  C   C56       1.0  0.06583754424734022  0.8622850761515528  0.025557070368075044  1.0000
  C   C57       1.0  0.9709898111329879  0.29335903334223823  0.5378219463135381  1.0000
  C   C58       1.0  0.5290101886154066  0.7066409662354516  0.03782194606043523  1.0000
  C   C59       1.0  0.4709898106723355  0.20664096605147114  0.46217805419266766  1.0000
  C   C60       1.0  0.029010188971535535  0.7933590335262187  0.9621780538087904  1.0000
  C   C61       1.0  0.06135941173771926  0.31772897520813076  0.5885716821908992  1.0000
  C   C62       1.0  0.43864058872293304  0.6822710251598302  0.08857168193779628  1.0000
  C   C63       1.0  0.5613594113815903  0.18227102497584974  0.4114283183153066  1.0000
  C   C64       1.0  0.9386405883668041  0.8177289746018401  0.9114283179314293  1.0000
  C   C65       1.0  0.11481059259085769  0.41357011947807315  0.5755973112920418  1.0000
  C   C66       1.0  0.38518940786979466  0.5864298808898878  0.07559731103893898  1.0000
  C   C67       1.0  0.6148105922347288  0.08642988070590729  0.4244026885771838  1.0000
  C   C68       1.0  0.8851894075136657  0.9135701188717826  0.9244026888302866  1.0000
  C   C69       1.0  0.33420520710766666  0.7029526935221181  0.45056364858132464  1.0000
  C   C70       1.0  0.16579479253620444  0.29704730684584285  0.9505636481974473  1.0000
  C   C71       1.0  0.834205207568319  0.7970473062395522  0.549436351287901  1.0000
  C   C72       1.0  0.6657947929968567  0.20295269333813762  0.049436351671778254  1.0000
  C   C73       1.0  0.3847624403477261  0.6105722373206606  0.42242740750428076  1.0000
  C   C74       1.0  0.11523755929614493  0.3894277630473004  0.9224274077573836  1.0000
  C   C75       1.0  0.8847624408083785  0.8894277624410099  0.5775725923649448  1.0000
  C   C76       1.0  0.6152375597567973  0.11057223713668006  0.0775725927488221  1.0000
  C   C77       1.0  0.4522960636285439  0.6137494448687411  0.35134150113096635  1.0000
  C   C78       1.0  0.04770393601532713  0.3862505554992199  0.8513415013840692  1.0000
  C   C79       1.0  0.9522960640891963  0.8862505556832004  0.6486584987382592  1.0000
  C   C80       1.0  0.5477039356591982  0.11374944468476057  0.14865849848515642  1.0000
  C   C81       1.0  0.426535378603401  0.7919808742069391  0.3350594358096343  1.0000
  C   C82       1.0  0.07346462104047001  0.20801912537075076  0.8350594360627371  1.0000
  C   C83       1.0  0.9265353790640535  0.7080191255547312  0.6649405640595912  1.0000
  C   C84       1.0  0.5734646215011223  0.2919808748132297  0.16494056444346855  1.0000
  C   C85       1.0  0.4629023240637324  0.8945870015418773  0.2958893531824411  1.0000
  C   C86       1.0  0.037097676396919944  0.10541299882608367  0.795889353435544  1.0000
  C   C87       1.0  0.9629023237076034  0.6054129990100642  0.7041106466867846  1.0000
  C   C88       1.0  0.537097676040791  0.3945870013578968  0.20411064643368163  1.0000
  C   C89       1.0  0.3765054054608099  0.9805815590364534  0.29304499682247037  1.0000
  C   C90       1.0  0.12349459418306115  0.019418440541236554  0.7930449964385932  1.0000
  C   C91       1.0  0.8765054059214622  0.519418440725217  0.7069550036837353  1.0000
  C   C92       1.0  0.6234945946437135  0.48058155885247283  0.20695500343063244  1.0000
  C   C93       1.0  0.3042214156474594  0.9800802821691592  0.3696817065356861  1.0000
  C   C94       1.0  0.19577858481319294  0.01991971819880177  0.869681706788789  1.0000
  C   C95       1.0  0.8042214152913304  0.5199197175925111  0.6303182933335395  1.0000
  C   C96       1.0  0.695778584457064  0.4800802819851787  0.13031829308043663  1.0000
  C   C97       1.0  0.2955886311432356  0.8950726626520531  0.4218273626801958  1.0000
  C   C98       1.0  0.20441136850063546  0.10492733692563679  0.9218273629332988  1.0000
  C   C99       1.0  0.7955886307871066  0.6049273371096173  0.5781726371890298  1.0000
  C   C100      1.0  0.7044113689612879  0.3950726632583437  0.0781726369359269  1.0000
  C   C101      1.0  0.35076788435323636  0.7963332109430854  0.4031659492232616  1.0000
  C   C102      1.0  0.14923211529063474  0.20366678942487557  0.9031659488393843  1.0000
  C   C103      1.0  0.8507678848138887  0.703666788818585  0.5968340506459641  1.0000
  C   C104      1.0  0.649232115751287  0.2963332107591049  0.09683405102984126  1.0000
  C   C105      1.0  0.16944723674926587  0.0807435781914516  0.44465186924659933  1.0000
  C   C106      1.0  0.3305527637113865  0.9192564213862382  0.9446518694997021  1.0000
  C   C107      1.0  0.669447236393137  0.4192564219925289  0.5553481306226262  1.0000
  C   C108      1.0  0.8305527633552576  0.5807435783754321  0.055348130369523386  1.0000
  N   N1        1.0  0.3187369392052118  0.781018276844646  0.6780021101462002  1.0000
  N   N2        1.0  0.18126306043865922  0.21898172273304387  0.17800211053007745  1.0000
  N   N3        1.0  0.8187369388490828  0.7189817229170243  0.3219978897230254  1.0000
  N   N4        1.0  0.6812630608993117  0.2810182766606655  0.8219978899761283  1.0000
  N   N5        1.0  0.47550848983907834  0.7031950917989093  0.30879811385537803  1.0000
  N   N6        1.0  0.024491510621573998  0.29680490856905173  0.8087981141084809  1.0000
  N   N7        1.0  0.9755084894829493  0.7968049087530322  0.6912018860138476  1.0000
  N   N8        1.0  0.524491510265445  0.20319509161492877  0.1912018863977248  1.0000
  O   O1        1.0  0.21939599651076264  0.6038365021894172  0.5490074177954288  1.0000
  O   O2        1.0  0.2806040039498897  0.3961634981785437  0.04900741754232589  1.0000
  O   O3        1.0  0.7193959961546338  0.896163497572253  0.45099258207379683  1.0000
  O   O4        1.0  0.7806040035937608  0.10383650200543677  0.9509925823268996  1.0000
  O   O5        1.0  0.09128399472174167  0.6588753366298333  0.4540399401748937  1.0000
  O   O6        1.0  0.4087160049221294  0.34112466294785654  0.9540399404279966  1.0000
  O   O7        1.0  0.591283995182394  0.841124663131837  0.5459600596943319  1.0000
  O   O8        1.0  0.9087160053827817  0.158875337236124  0.04596005944122907  1.0000
  O   O9        1.0  0.2514146082612097  0.07345402501821721  0.37966278174684187  1.0000
  O   O10       1.0  0.24858539138266136  0.9265459745594727  0.8796627813629646  1.0000
  O   O11       1.0  0.751414608721862  0.4265459751657633  0.6203372187593638  1.0000
  O   O12       1.0  0.7485853918433137  0.5734540252021977  0.12033721850626097  1.0000
  Cl  Cl1       1.0  0.9016744456130946  0.17566384719730002  0.553963705298653  1.0000
  Cl  Cl2       1.0  0.5983255549520812  0.8243361523803899  0.053963705045550175  1.0000
  Cl  Cl3       1.0  0.40167444515244227  0.3243361529866805  0.44603629457057253  1.0000
  Cl  Cl4       1.0  0.09832555449142878  0.6756638473812805  0.9460362948236755  1.0000
  Cl  Cl5       1.0  0.794432511983477  0.5342987178108702  0.8046305194605311  1.0000
  Cl  Cl6       1.0  0.7055674885816988  0.4657012825570908  0.3046305192074282  1.0000
  Cl  Cl7       1.0  0.2944325115228246  0.9657012819508002  0.19536948040869456  1.0000
  Cl  Cl8       1.0  0.20556748812104642  0.03429871762688973  0.6953694806617975  1.0000
