data_image0
_chemical_formula_structural       H44B2C50N6Cl2
_chemical_formula_sum              "H44 B2 C50 N6 Cl2"
_cell_length_a       8.496730265776394
_cell_length_b       8.91430137984251
_cell_length_c       15.581621825554457
_cell_angle_alpha    94.9934424236639
_cell_angle_beta     92.13707191362602
_cell_angle_gamma    117.88677511683728

_space_group_name_H-M_alt    "P 1"
_space_group_IT_number       1

loop_
  _space_group_symop_operation_xyz
  'x, y, z'

loop_
  _atom_site_type_symbol
  _atom_site_label
  _atom_site_symmetry_multiplicity
  _atom_site_fract_x
  _atom_site_fract_y
  _atom_site_fract_z
  _atom_site_occupancy
  H   H1        1.0  0.20731474347019943  0.3206110030129589  0.33068276208587594  1.0000
  H   H2        1.0  0.7926852558230014  0.6793889975417148  0.6693172378704264  1.0000
  H   H3        1.0  0.9890426958516196  0.0774437138289025  0.26582923849929363  1.0000
  H   H4        1.0  0.010957304616799763  0.9225562867224287  0.7341707614561314  1.0000
  H   H5        1.0  0.7268815978914183  0.9201638918257696  0.15657770169091126  1.0000
  H   H6        1.0  0.273118402577001  0.07983610872556157  0.8434222982645135  1.0000
  H   H7        1.0  0.6391480200222548  0.08502609380646357  0.059472917966104766  1.0000
  H   H8        1.0  0.3608519804461645  0.9149739067448677  0.9405270819893201  1.0000
  H   H9        1.0  0.8157557430840909  0.39710785179135083  0.07182849952538656  1.0000
  H   H10       1.0  0.1842442562091099  0.602892148763323  0.9281715004309158  1.0000
  H   H11       1.0  0.986192912819894  0.6375191518494665  0.0666838590685484  1.0000
  H   H12       1.0  0.013807087648525306  0.3624808487018646  0.9333161408868764  1.0000
  H   H13       1.0  0.16294251498511864  0.9482935369960532  0.07977611259165267  1.0000
  H   H14       1.0  0.8370574836824858  0.051706462289587925  0.9202238873652527  1.0000
  H   H15       1.0  0.40514704166937454  0.10442939556229508  0.20096229561475182  1.0000
  H   H16       1.0  0.5948529587990447  0.8955706049890361  0.7990377043406731  1.0000
  H   H17       1.0  0.4642013480844228  0.9417520069655729  0.305554783915747  1.0000
  H   H18       1.0  0.5357986517584001  0.05824799231672578  0.694445216040281  1.0000
  H   H19       1.0  0.19961700825879386  0.8281296335906541  0.3893016518217898  1.0000
  H   H20       1.0  0.800382991584029  0.17187036569164443  0.6106983481342383  1.0000
  H   H21       1.0  0.12478683152448465  0.8765400073552292  0.53669492705716  1.0000
  H   H22       1.0  0.8752131689439346  0.12345999319610192  0.46330507289826495  1.0000
  H   H23       1.0  0.17770917891742644  0.7227563085703234  0.6542824551183665  1.0000
  H   H24       1.0  0.8222908209253964  0.2772436907119752  0.34571754483766154  1.0000
  H   H25       1.0  0.2897493355129496  0.5125343758057581  0.6123100352893261  1.0000
  H   H26       1.0  0.7102506643298733  0.4874656234765406  0.38768996466670175  1.0000
  H   H27       1.0  0.33235290602861944  0.4559853703811712  0.4585646861839371  1.0000
  H   H28       1.0  0.6676470932645814  0.5440146301735025  0.5414353137723651  1.0000
  H   H29       1.0  0.5964999318641687  0.8185905336023249  0.43068539683555496  1.0000
  H   H30       1.0  0.4035000686042506  0.18140946694900636  0.56931460311987  1.0000
  H   H31       1.0  0.9194455581648925  0.921648517902123  0.4090968538503358  1.0000
  H   H32       1.0  0.08055444230352687  0.07835148264920817  0.5909031461050891  1.0000
  H   H33       1.0  0.0014381663735653675  0.7996927417749797  0.2793071401838495  1.0000
  H   H34       1.0  0.9985618334692574  0.2003072575073189  0.7206928597721786  1.0000
  H   H35       1.0  0.7546516241627516  0.5642330105089062  0.17733725288356036  1.0000
  H   H36       1.0  0.24534837630566775  0.43576699004242503  0.8226627470718645  1.0000
  H   H37       1.0  0.4371389686722689  0.4738768983814614  0.2074359227987273  1.0000
  H   H38       1.0  0.5628610299953357  0.5261231009041799  0.7925640771581783  1.0000
  H   H39       1.0  0.21082063539075507  0.38897271673026446  0.06683888570120484  1.0000
  H   H40       1.0  0.7891793650776641  0.6110272838210666  0.93316111425422  1.0000
  H   H41       1.0  0.3978385275574013  0.7017512457519581  0.06433224532964975  1.0000
  H   H42       1.0  0.6021614722854217  0.29824875353034047  0.9356677546263783  1.0000
  H   H43       1.0  0.3127159001212534  0.18680609724655697  0.0028423620670937374  1.0000
  H   H44       1.0  0.6872840985463511  0.8131939020390843  0.9971576378898117  1.0000
  B   B1        1.0  0.29439157205313793  0.5913182241131177  0.31859495117559566  1.0000
  B   B2        1.0  0.7056084266144668  0.4086817751725236  0.6814050487813099  1.0000
  C   C1        1.0  0.04866521852115929  0.32551469007082634  0.23230650957195406  1.0000
  C   C2        1.0  0.95133478194726  0.6744853104805049  0.7676934903834708  1.0000
  C   C3        1.0  0.9480426557267158  0.14534282682765925  0.22284185283428307  1.0000
  C   C4        1.0  0.05195734474170344  0.8546571737236718  0.7771581471211418  1.0000
  C   C5        1.0  0.8029443439013576  0.05915929186869367  0.16157710553142915  1.0000
  C   C6        1.0  0.19705565539184317  0.9408407086859801  0.8384228944248733  1.0000
  C   C7        1.0  0.7542875485278807  0.15080003873280978  0.10712743445102046  1.0000
  C   C8        1.0  0.24571245194053853  0.8491999618185214  0.8928725655044044  1.0000
  C   C9        1.0  0.8545524714012455  0.32786617628909187  0.11485801512975176  1.0000
  C   C10       1.0  0.14544752844157746  0.6721338229932068  0.8851419848262764  1.0000
  C   C11       1.0  0.0032686484073457  0.4198844541854627  0.17611460710872803  1.0000
  C   C12       1.0  0.9967313514354773  0.5801155450968359  0.8238853928473  1.0000
  C   C13       1.0  0.11377933705468948  0.6065005648193675  0.18245867742678482  1.0000
  C   C14       1.0  0.8862206634137298  0.39349943573196366  0.8175413225286401  1.0000
  C   C15       1.0  0.08763785281197134  0.7019773852253709  0.12091881386103832  1.0000
  C   C16       1.0  0.9123621476564479  0.2980226153259602  0.8790811860943866  1.0000
  C   C17       1.0  0.1893251535114877  0.8787880749885111  0.1275599584810646  1.0000
  C   C18       1.0  0.8106748457817131  0.12121192556616259  0.8724400414752378  1.0000
  C   C19       1.0  0.32468001605146984  0.9660002736214038  0.19472339638598335  1.0000
  C   C20       1.0  0.675319983791353  0.033999725660894764  0.8052766035700447  1.0000
  C   C21       1.0  0.35613765745361325  0.8728394089982752  0.25409113953167345  1.0000
  C   C22       1.0  0.6438623418395878  0.1271605915563986  0.7459088604246289  1.0000
  C   C23       1.0  0.2521163927864978  0.6946249000879396  0.25060954193038765  1.0000
  C   C24       1.0  0.7478836058811068  0.30537509919770156  0.7493904580265179  1.0000
  C   C25       1.0  0.2130754670361646  0.75705390092444  0.43977390582926007  1.0000
  C   C26       1.0  0.7869245328066583  0.2429460983578587  0.5602260941267679  1.0000
  C   C27       1.0  0.17582798657371715  0.786398803036492  0.5235985912519913  1.0000
  C   C28       1.0  0.8241720138947022  0.21360119751483922  0.4764014087034336  1.0000
  C   C29       1.0  0.2035416107653455  0.6996657489041412  0.5877312107274764  1.0000
  C   C30       1.0  0.7964583891980783  0.3003342505305329  0.4122687898753203  1.0000
  C   C31       1.0  0.26510472266784374  0.5828449258143019  0.5647757705021033  1.0000
  C   C32       1.0  0.7348952771749793  0.4171550734679968  0.43522422945392486  1.0000
  C   C33       1.0  0.2943633934584907  0.553972452827817  0.47959469723326126  1.0000
  C   C34       1.0  0.7056366070099286  0.446027547723514  0.5204053027221637  1.0000
  C   C35       1.0  0.6363313654290438  0.7675678184573619  0.37456897828533187  1.0000
  C   C36       1.0  0.3636686344137792  0.23243218082493688  0.6254310216706962  1.0000
  C   C37       1.0  0.8155579465858382  0.8230231131345186  0.3628746489883168  1.0000
  C   C38       1.0  0.18444205325698468  0.17697688614778004  0.6371253509677112  1.0000
  C   C39       1.0  0.8615338017281878  0.7532700087581541  0.29084833910211993  1.0000
  C   C40       1.0  0.1384661987402315  0.2467299917931772  0.709151660853305  1.0000
  C   C41       1.0  0.7255684569541684  0.6241751539854495  0.23384718212379374  1.0000
  C   C42       1.0  0.27443154245963336  0.37582484672159977  0.7661528184792774  1.0000
  C   C43       1.0  0.5494713648329563  0.5724890038243992  0.2494727947214369  1.0000
  C   C44       1.0  0.450528635635463  0.42751099672693205  0.750527205233988  1.0000
  C   C45       1.0  0.33734620869194315  0.4375252891504109  0.03735306428167712  1.0000
  C   C46       1.0  0.6626537917764762  0.5624747114009203  0.9626469356737477  1.0000
  C   C47       1.0  0.4426064066134999  0.613649093809452  0.03576512550692006  1.0000
  C   C48       1.0  0.5573935939755201  0.3863509068942548  0.9642348750952735  1.0000
  C   C49       1.0  0.3950193709211431  0.32409475547593875  0.0017673100367740064  1.0000
  C   C50       1.0  0.6049806289216798  0.67590524380636  0.9982326899192541  1.0000
  N   N1        1.0  0.1881985254948151  0.40435419696337926  0.29511828018468345  1.0000
  N   N2        1.0  0.8118014743480079  0.5956458023189194  0.7048817197713446  1.0000
  N   N3        1.0  0.2698441683753982  0.6413965443300588  0.4179272720353881  1.0000
  N   N4        1.0  0.7301558314674248  0.35860345495223983  0.58207272792064  1.0000
  N   N5        1.0  0.5056647336063902  0.6447956926506818  0.3181921864904152  1.0000
  N   N6        1.0  0.49433526686202894  0.35520430790064933  0.6818078134650097  1.0000
  Cl  Cl1       1.0  0.25091537407379566  0.1534701749514161  0.4131726335077706  1.0000
  Cl  Cl2       1.0  0.7490846263946237  0.8465298255999152  0.5868273664476544  1.0000
