data_image0
_chemical_formula_structural       H12C24N2I4
_chemical_formula_sum              "H12 C24 N2 I4"
_cell_length_a       6.935412706012349
_cell_length_b       8.926924881602083
_cell_length_c       10.126208344734826
_cell_angle_alpha    96.71205753737237
_cell_angle_beta     108.22505176775714
_cell_angle_gamma    91.39618355035611

_space_group_name_H-M_alt    "P 1"
_space_group_IT_number       1

loop_
  _space_group_symop_operation_xyz
  'x, y, z'

loop_
  _atom_site_type_symbol
  _atom_site_label
  _atom_site_symmetry_multiplicity
  _atom_site_fract_x
  _atom_site_fract_y
  _atom_site_fract_z
  _atom_site_occupancy
  H   H1        1.0  0.2521665470815343  0.571919181956142  0.3319732609702481  1.0000
  H   H2        1.0  0.7478334535053998  0.42808081855045815  0.6680267392982467  1.0000
  H   H3        1.0  0.39360342349470623  0.7268623960914925  0.7750164884735836  1.0000
  H   H4        1.0  0.6063965770922277  0.27313760441510776  0.22498351179491122  1.0000
  H   H5        1.0  0.32506610644942896  0.5422716120745796  0.9254642387990165  1.0000
  H   H6        1.0  0.6749338940941151  0.45772838731043836  0.07453576146184583  1.0000
  H   H7        1.0  0.21723639309217257  0.2812972478390815  0.9486903774618165  1.0000
  H   H8        1.0  0.7827636074513716  0.7187027515459368  0.0513096227990459  1.0000
  H   H9        1.0  0.11297957351625543  0.08324345602550166  0.7400232666999674  1.0000
  H   H10       1.0  0.8870204251448264  0.9167565443448636  0.25997673252074927  1.0000
  H   H11       1.0  0.11379454157925248  0.14559707384021986  0.5068818896766346  1.0000
  H   H12       1.0  0.8862054575663626  0.854402926670181  0.4931181105927996  1.0000
  C   C1        1.0  0.9574250482412278  0.06201037458599351  0.01939138370679895  1.0000
  C   C2        1.0  0.0425749523023163  0.9379896247990247  0.9806086165540633  1.0000
  C   C3        1.0  0.26271262232969933  0.5500071850438356  0.43789968559953196  1.0000
  C   C4        1.0  0.7372873782138447  0.44999281434118255  0.5621003146613304  1.0000
  C   C5        1.0  0.3322987267207551  0.6699612149091663  0.5518967473593196  1.0000
  C   C6        1.0  0.667701273822789  0.33003878447585183  0.44810325290154274  1.0000
  C   C7        1.0  0.34147711217716203  0.6387170419037664  0.6852318777133944  1.0000
  C   C8        1.0  0.6585228883663822  0.36128295748125167  0.3147681225474679  1.0000
  C   C9        1.0  0.28286196542877917  0.4921529016006777  0.7033914834497669  1.0000
  C   C10       1.0  0.7171380351581549  0.5078470989059224  0.296608516818728  1.0000
  C   C11       1.0  0.28074988775429005  0.4542352109097511  0.8351666420970063  1.0000
  C   C12       1.0  0.7192501127892541  0.5457647884752669  0.16483335816385608  1.0000
  C   C13       1.0  0.22017992392380423  0.3095480846585195  0.8473981836345431  1.0000
  C   C14       1.0  0.779820075221811  0.6904519158518815  0.15260181663489106  1.0000
  C   C15       1.0  0.16077748722822036  0.1970464099187302  0.7288230918889117  1.0000
  C   C16       1.0  0.8392225114328615  0.802953590451635  0.271176907331805  1.0000
  C   C17       1.0  0.16051157766944568  0.2307500394328521  0.5990758699805985  1.0000
  C   C18       1.0  0.8394884224329549  0.7692499609337123  0.4009241292391787  1.0000
  C   C19       1.0  0.2191546202698014  0.37863136934630853  0.5832084854298069  1.0000
  C   C20       1.0  0.7808453803171327  0.6213686311602917  0.4167915148386879  1.0000
  C   C21       1.0  0.39501094738401377  0.8123895304368921  0.5284172946969067  1.0000
  C   C22       1.0  0.6049890517182116  0.18761046895192687  0.47158270556489507  1.0000
  C   C23       1.0  0.4615035620307489  0.9338572771132383  0.5095293330677427  1.0000
  C   C24       1.0  0.5384964370714765  0.06614272227558071  0.4904706671940589  1.0000
  N   N1        1.0  0.21096077940243604  0.41190114718908594  0.45294875039200555  1.0000
  N   N2        1.0  0.789039221141108  0.588098852195932  0.5470512498688568  1.0000
  I   I1        1.0  0.08069696144522709  0.21019387597043437  0.21034972274490576  1.0000
  I   I2        1.0  0.9193030390983171  0.7898061234145837  0.7896502775159565  1.0000
  I   I3        1.0  0.6737279879482787  0.12557608140566795  0.8936255758673806  1.0000
  I   I4        1.0  0.32627201263865535  0.8744239191009322  0.10637442440111432  1.0000
