data_image0
_chemical_formula_structural       H48C112N8F16I8
_chemical_formula_sum              "H48 C112 N8 F16 I8"
_cell_length_a       19.235144107747107
_cell_length_b       9.554071275104173
_cell_length_c       15.641180782696809
_cell_angle_alpha    90.0
_cell_angle_beta     122.25866504275054
_cell_angle_gamma    90.0

_space_group_name_H-M_alt    "P 1"
_space_group_IT_number       1

loop_
  _space_group_symop_operation_xyz
  'x, y, z'

loop_
  _atom_site_type_symbol
  _atom_site_label
  _atom_site_symmetry_multiplicity
  _atom_site_fract_x
  _atom_site_fract_y
  _atom_site_fract_z
  _atom_site_occupancy
  H   H1        1.0  0.9564411920716962  0.501722495256111  0.12947082769346818  1.0000
  H   H2        1.0  0.4564411918857709  0.001722494999894227  0.12947082741112897  1.0000
  H   H3        1.0  0.9564411921900765  0.4982775042096484  0.6294708275502422  1.0000
  H   H4        1.0  0.45644119200415123  0.998277504465865  0.629470827267903  1.0000
  H   H5        1.0  0.04355880801619027  0.4982775042096484  0.8705291725828118  1.0000
  H   H6        1.0  0.5435588082021157  0.998277504465865  0.8705291728651511  1.0000
  H   H7        1.0  0.04355880789780992  0.501722495256111  0.37052917272603775  1.0000
  H   H8        1.0  0.543558807756944  0.001722494999894227  0.3705291722523455  1.0000
  H   H9        1.0  0.7722128339004594  0.512187285304363  0.808976414242776  1.0000
  H   H10       1.0  0.27221283371453414  0.01218728504814618  0.8089764139604367  1.0000
  H   H11       1.0  0.772212834302804  0.4878127152080706  0.30897641438794854  1.0000
  H   H12       1.0  0.27221283411687863  0.9878127154642874  0.3089764141056093  1.0000
  H   H13       1.0  0.227787166187427  0.4878127152080706  0.19102358603350394  1.0000
  H   H14       1.0  0.7277871660465611  0.9878127154642874  0.19102358555981166  1.0000
  H   H15       1.0  0.22778716630580728  0.512187285304363  0.6910235858902778  1.0000
  H   H16       1.0  0.7277871656442166  0.01218728504814618  0.6910235854146393  1.0000
  H   H17       1.0  0.791903492930109  0.6834696143638306  0.703297116886279  1.0000
  H   H18       1.0  0.2919034927441836  0.18346961410761375  0.7032971166039399  1.0000
  H   H19       1.0  0.7919034924849373  0.316530386148603  0.20329711627347363  1.0000
  H   H20       1.0  0.2919034931465281  0.8165303853581456  0.20329711674911233  1.0000
  H   H21       1.0  0.20809650715777755  0.316530386148603  0.29670288339000084  1.0000
  H   H22       1.0  0.7080965073437029  0.8165303853581456  0.2967028836723401  1.0000
  H   H23       1.0  0.20809650727615792  0.6834696143638306  0.7967028832467749  1.0000
  H   H24       1.0  0.7080965074620832  0.18346961410761375  0.796702883529114  1.0000
  H   H25       1.0  0.8737195758320143  0.8753530687794469  0.6921118067281872  1.0000
  H   H26       1.0  0.37371957564608904  0.37535306852322997  0.692111806445848  1.0000
  H   H27       1.0  0.873719575713634  0.12464693173298678  0.19211180687141316  1.0000
  H   H28       1.0  0.37371957604843353  0.6246469319892036  0.19211180659102045  1.0000
  H   H29       1.0  0.12628042425587216  0.12464693173298678  0.3078881935480928  1.0000
  H   H30       1.0  0.6262804241150062  0.6246469319892036  0.3078881930744006  1.0000
  H   H31       1.0  0.12628042437425246  0.8753530687794469  0.8078881934048667  1.0000
  H   H32       1.0  0.6262804245601779  0.37535306852322997  0.807888193687206  1.0000
  H   H33       1.0  0.0006361403897337884  0.9604822107526034  0.8467290611704109  1.0000
  H   H34       1.0  0.5006361405756592  0.4604822104963865  0.8467290614527503  1.0000
  H   H35       1.0  0.00063614079207834  0.03951778871315604  0.3467290613155835  1.0000
  H   H36       1.0  0.5006361404572789  0.5395177889693729  0.3467290615959763  1.0000
  H   H37       1.0  0.9993638593713615  0.03951778871315604  0.1532709383498375  1.0000
  H   H38       1.0  0.49936385951222734  0.5395177889693729  0.15327093882352968  1.0000
  H   H39       1.0  0.9993638592958082  0.9604822107526034  0.6532709389606964  1.0000
  H   H40       1.0  0.4993638596306077  0.4604822104963865  0.6532709386803037  1.0000
  H   H41       1.0  0.049465467262479926  0.8524907785881253  0.013982860493096362  1.0000
  H   H42       1.0  0.5494654674484053  0.35249077937858275  0.013982860775435564  1.0000
  H   H43       1.0  0.04946546686013544  0.14750922087763405  0.513982860347924  1.0000
  H   H44       1.0  0.5494654670460608  0.6475092211338508  0.5139828606302631  1.0000
  H   H45       1.0  0.9505345328254066  0.14750922087763405  0.9860171397831836  1.0000
  H   H46       1.0  0.4505345326394813  0.6475092211338508  0.9860171395008445  1.0000
  H   H47       1.0  0.9505345329009597  0.8524907785881253  0.4860171391723246  1.0000
  H   H48       1.0  0.4505345330418257  0.35249077937858275  0.4860171396460168  1.0000
  C   C1        1.0  0.1930919201067774  0.73914717157299  0.39411739790218225  1.0000
  C   C2        1.0  0.6930919202927027  0.23914717131677324  0.3941173981845214  1.0000
  C   C3        1.0  0.19309192022515767  0.2608528289394435  0.8941173977589562  1.0000
  C   C4        1.0  0.6930919198903581  0.7608528281489861  0.8941173980393489  1.0000
  C   C5        1.0  0.8069080796543179  0.2608528289394435  0.6058826016180662  1.0000
  C   C6        1.0  0.3069080797951837  0.7608528281489861  0.6058826020917584  1.0000
  C   C7        1.0  0.8069080795359375  0.73914717157299  0.10588260176129226  1.0000
  C   C8        1.0  0.3069080801975283  0.23914717131677324  0.10588260223693097  1.0000
  C   C9        1.0  0.18222607754940562  0.8360423844454632  0.45266289957876565  1.0000
  C   C10       1.0  0.6822260774085396  0.3360423852359206  0.4526628991050734  1.0000
  C   C11       1.0  0.18222607766778595  0.16395761502029615  0.9526628994355397  1.0000
  C   C12       1.0  0.6822260770061951  0.6639576152765129  0.952662898959901  1.0000
  C   C13       1.0  0.8177739225384809  0.16395761502029615  0.5473371006975143  1.0000
  C   C14       1.0  0.31777392235255547  0.6639576152765129  0.547337100415175  1.0000
  C   C15       1.0  0.8177739224201005  0.8360423844454632  0.04733710084074027  1.0000
  C   C16       1.0  0.3177739227549  0.3360423852359206  0.04733710056034754  1.0000
  C   C17       1.0  0.2621585739350908  0.6530145547749197  0.4435623811216947  1.0000
  C   C18       1.0  0.7621585737942247  0.15301455556537702  0.44356238064800246  1.0000
  C   C19       1.0  0.2621585735327463  0.3469854446908398  0.9435623809765223  1.0000
  C   C20       1.0  0.7621585733918803  0.8469854449470565  0.94356238050283  1.0000
  C   C21       1.0  0.7378414261527957  0.3469854446908398  0.5564376191545852  1.0000
  C   C22       1.0  0.23784142596687033  0.8469854449470565  0.556437618872246  1.0000
  C   C23       1.0  0.7378414265551402  0.6530145547749197  0.056437619299757685  1.0000
  C   C24       1.0  0.23784142636921488  0.15301455556537702  0.05643761901741848  1.0000
  C   C25       1.0  0.9325259841541922  0.5455019195409104  0.05418817254681349  1.0000
  C   C26       1.0  0.43252598396826686  0.045501919284693625  0.05418817226447429  1.0000
  C   C27       1.0  0.9325259842725725  0.4544980799248489  0.5541881724035875  1.0000
  C   C28       1.0  0.4325259840866471  0.9544980801810657  0.5541881721212483  1.0000
  C   C29       1.0  0.06747401593369423  0.4544980799248489  0.9458118277294664  1.0000
  C   C30       1.0  0.5674740157928284  0.9544980801810657  0.9458118272557743  1.0000
  C   C31       1.0  0.06747401581531398  0.5455019195409104  0.4458118278726924  1.0000
  C   C32       1.0  0.567474015674448  0.045501919284693625  0.4458118273990002  1.0000
  C   C33       1.0  0.8575702663774718  0.49215170837719446  0.9700964617356359  1.0000
  C   C34       1.0  0.35757026651833773  0.9921517086334113  0.9700964622093281  1.0000
  C   C35       1.0  0.8575702662590915  0.5078482910885649  0.47009646187886195  1.0000
  C   C36       1.0  0.3575702663999575  0.007848291879022267  0.4700964623525542  1.0000
  C   C37       1.0  0.14242973338362333  0.5078482910885649  0.029903537784612518  1.0000
  C   C38       1.0  0.6424297335695487  0.007848291879022267  0.02990353806695172  1.0000
  C   C39       1.0  0.14242973350200364  0.49215170837719446  0.5299035376413865  1.0000
  C   C40       1.0  0.6424297336879289  0.9921517086334113  0.5299035379237257  1.0000
  C   C41       1.0  0.8290364293067978  0.5499912371066863  0.8752318124324869  1.0000
  C   C42       1.0  0.3290364291208724  0.049991236850469516  0.8752318121501478  1.0000
  C   C43       1.0  0.8290364291884175  0.4500087634057473  0.375231812575713  1.0000
  C   C44       1.0  0.32903642900249214  0.9500087626152899  0.3752318122933738  1.0000
  C   C45       1.0  0.17096357130181353  0.4500087634057473  0.12476818784573938  1.0000
  C   C46       1.0  0.6709635709670141  0.9500087626152899  0.1247681881261321  1.0000
  C   C47       1.0  0.17096357089946906  0.5499912371066863  0.624768187700567  1.0000
  C   C48       1.0  0.6709635710853944  0.049991236850469516  0.6247681879829061  1.0000
  C   C49       1.0  0.8737870029867959  0.6584027969721643  0.8651960800601353  1.0000
  C   C50       1.0  0.3737870031276618  0.15840279671594754  0.8651960805338272  1.0000
  C   C51       1.0  0.8737870028684156  0.34159720249359504  0.36519608020336114  1.0000
  C   C52       1.0  0.3737870026824902  0.8415972027498119  0.3651960799210219  1.0000
  C   C53       1.0  0.1262129967742993  0.34159720249359504  0.13480391946011336  1.0000
  C   C54       1.0  0.6262129969602246  0.8415972027498119  0.13480391974245257  1.0000
  C   C55       1.0  0.12621299721947093  0.6584027969721643  0.6348039200729189  1.0000
  C   C56       1.0  0.6262129970786049  0.15840279671594754  0.6348039195992266  1.0000
  C   C57       1.0  0.8479142346056971  0.7210609290671097  0.7705846878128104  1.0000
  C   C58       1.0  0.34791423441977165  0.22106092881089287  0.770584687530471  1.0000
  C   C59       1.0  0.8479142344873168  0.2789390714453239  0.2705846879560364  1.0000
  C   C60       1.0  0.34791423430139135  0.7789390717015406  0.27058468767369714  1.0000
  C   C61       1.0  0.15208576548218944  0.2789390714453239  0.22941531246346955  1.0000
  C   C62       1.0  0.6520857653413236  0.7789390717015406  0.22941531198977735  1.0000
  C   C63       1.0  0.15208576560056977  0.7210609290671097  0.7294153123202436  1.0000
  C   C64       1.0  0.6520857654597039  0.22106092881089287  0.7294153118465514  1.0000
  C   C65       1.0  0.8935278001064998  0.827456475084105  0.7647878717274851  1.0000
  C   C66       1.0  0.3935277999205744  0.32745647482788826  0.7647878714451459  1.0000
  C   C67       1.0  0.8935277999881195  0.17254352438165432  0.264787871870711  1.0000
  C   C68       1.0  0.39352779980219404  0.672543524637871  0.2647878715883718  1.0000
  C   C69       1.0  0.10647219998138675  0.17254352438165432  0.2352121285487949  1.0000
  C   C70       1.0  0.6064721998405208  0.672543524637871  0.2352121280751027  1.0000
  C   C71       1.0  0.10647220009976706  0.827456475084105  0.7352121284055689  1.0000
  C   C72       1.0  0.6064722002856924  0.32745647482788826  0.7352121286879082  1.0000
  C   C73       1.0  0.9661019270438533  0.8752615852668338  0.8527887137905508  1.0000
  C   C74       1.0  0.4661019268579281  0.3752615860572913  0.8527887135082116  1.0000
  C   C75       1.0  0.9661019269254733  0.12473841419892542  0.3527887139337768  1.0000
  C   C76       1.0  0.4661019267395478  0.6247384144551422  0.35278871365143766  1.0000
  C   C77       1.0  0.03389807304403302  0.12473841419892542  0.1472112864857291  1.0000
  C   C78       1.0  0.533898072903167  0.6247384144551422  0.14721128601203684  1.0000
  C   C79       1.0  0.03389807316241329  0.8752615852668338  0.647211286342503  1.0000
  C   C80       1.0  0.5338980730215473  0.3752615860572913  0.6472112858688108  1.0000
  C   C81       1.0  0.9933214261784642  0.8160339551072682  0.9460915867552703  1.0000
  C   C82       1.0  0.4933214263193301  0.31603395485105146  0.9460915872289625  1.0000
  C   C83       1.0  0.9933214265808086  0.18396604435849112  0.4460915869004426  1.0000
  C   C84       1.0  0.4933214267216746  0.6839660446147079  0.44609158737413485  1.0000
  C   C85       1.0  0.0066785735826310555  0.18396604435849112  0.053908412764978327  1.0000
  C   C86       1.0  0.5066785737685563  0.6839660446147079  0.053908413047317534  1.0000
  C   C87       1.0  0.006678573180286547  0.8160339551072682  0.5539084126198058  1.0000
  C   C88       1.0  0.5066785733662118  0.31603395485105146  0.5539084129021451  1.0000
  C   C89       1.0  0.9478880357745505  0.7062892442077185  0.954253485854805  1.0000
  C   C90       1.0  0.4478880355886251  0.20628924395150172  0.9542534855724658  1.0000
  C   C91       1.0  0.9478880353293787  0.29371075630471505  0.4542534852419995  1.0000
  C   C92       1.0  0.4478880354702447  0.7937107555142576  0.45425348571569174  1.0000
  C   C93       1.0  0.05211196431333611  0.29371075630471505  0.04574651442147496  1.0000
  C   C94       1.0  0.5521119644992615  0.7937107555142576  0.045746514703814155  1.0000
  C   C95       1.0  0.05211196443171641  0.7062892442077185  0.5457465142782489  1.0000
  C   C96       1.0  0.5521119646176418  0.20628924395150172  0.5457465145605881  1.0000
  C   C97       1.0  0.8136861552124378  0.3869239179356753  0.9840330100532124  1.0000
  C   C98       1.0  0.3136861550265124  0.8869239171452179  0.9840330097708733  1.0000
  C   C99       1.0  0.813686155287991  0.6130760825767582  0.4840330094423536  1.0000
  C   C100      1.0  0.313686155428857  0.11307608232054145  0.48403300991604575  1.0000
  C   C101      1.0  0.1863138448754486  0.6130760825767582  0.01596699022306741  1.0000
  C   C102      1.0  0.6863138450613739  0.11307608232054145  0.01596699050540661  1.0000
  C   C103      1.0  0.1863138444731041  0.3869239179356753  0.5159669900778949  1.0000
  C   C104      1.0  0.6863138446590294  0.8869239171452179  0.5159669903602341  1.0000
  C   C105      1.0  0.772862166832955  0.29816076811389913  0.994750317230334  1.0000
  C   C106      1.0  0.2728621666470298  0.7981607683701158  0.9947503169479948  1.0000
  C   C107      1.0  0.7728621663877836  0.7018392323985344  0.49475031661752855  1.0000
  C   C108      1.0  0.27286216652864953  0.20183923214231766  0.4947503170912208  1.0000
  C   C109      1.0  0.22713783325493134  0.7018392323985344  0.005249683045945929  1.0000
  C   C110      1.0  0.7271378334408567  0.20183923214231766  0.005249683328285131  1.0000
  C   C111      1.0  0.22713783337331162  0.29816076811389913  0.5052496829027199  1.0000
  C   C112      1.0  0.727137833559237  0.7981607683701158  0.5052496831850591  1.0000
  N   N1        1.0  0.9751093328570185  0.6470956539867964  0.046714678076265496  1.0000
  N   N2        1.0  0.4751093329978844  0.14709565477725375  0.046714678549957735  1.0000
  N   N3        1.0  0.9751093329753988  0.35290434547896304  0.5467146779330395  1.0000
  N   N4        1.0  0.47510933311626474  0.8529043457351798  0.5467146784067317  1.0000
  N   N5        1.0  0.02489066690407674  0.35290434547896304  0.9532853214439829  1.0000
  N   N6        1.0  0.5248906670900021  0.8529043457351798  0.9532853217263221  1.0000
  N   N7        1.0  0.024890666785696444  0.6470956539867964  0.45328532158720897  1.0000
  N   N8        1.0  0.5248906669716218  0.14709565477725375  0.4532853218695482  1.0000
  F   F1        1.0  0.11623307393310965  0.9230846741724605  0.40874230917141835  1.0000
  F   F2        1.0  0.6162330737922438  0.42308467496291796  0.40874230869772615  1.0000
  F   F3        1.0  0.11623307405149  0.07691532529329885  0.9087423090281924  1.0000
  F   F4        1.0  0.6162330742374154  0.5769153255495156  0.9087423093105316  1.0000
  F   F5        1.0  0.8837669261547769  0.07691532529329885  0.5912576911048616  1.0000
  F   F6        1.0  0.3837669259688515  0.5769153255495156  0.5912576908225223  1.0000
  F   F7        1.0  0.8837669260363966  0.9230846741724605  0.09125769124808758  1.0000
  F   F8        1.0  0.3837669258504711  0.42308467496291796  0.09125769096574836  1.0000
  F   F9        1.0  0.276324806539481  0.556031237054182  0.39116668046215464  1.0000
  F   F10       1.0  0.776324806398615  0.05603123784463948  0.3911666799884624  1.0000
  F   F11       1.0  0.2763248066578613  0.4439687624115773  0.8911666803189287  1.0000
  F   F12       1.0  0.7763248065169953  0.9439687626677941  0.8911666798452365  1.0000
  F   F13       1.0  0.7236751935484055  0.4439687624115773  0.6088333198141253  1.0000
  F   F14       1.0  0.22367519336248007  0.9439687626677941  0.608833319531786  1.0000
  F   F15       1.0  0.7236751934300252  0.556031237054182  0.10883331995735128  1.0000
  F   F16       1.0  0.22367519324409982  0.05603123784463948  0.10883331967501206  1.0000
  I   I1        1.0  0.10506402235121996  0.716148239110284  0.23802978203775035  1.0000
  I   I2        1.0  0.6050640225371453  0.2161482399007415  0.23802978232008956  1.0000
  I   I3        1.0  0.10506402194887543  0.2838517603554753  0.7380297818925778  1.0000
  I   I4        1.0  0.6050640221348008  0.783851760611692  0.738029782174917  1.0000
  I   I5        1.0  0.8949359777366667  0.2838517603554753  0.7619702182385295  1.0000
  I   I6        1.0  0.39493597755074117  0.783851760611692  0.7619702179561904  1.0000
  I   I7        1.0  0.894935978139011  0.716148239110284  0.26197021838370205  1.0000
  I   I8        1.0  0.39493597795308566  0.2161482399007415  0.26197021810136284  1.0000
