data_image0
_chemical_formula_structural       H20C86F30
_chemical_formula_sum              "H20 C86 F30"
_cell_length_a       7.202078884069284
_cell_length_b       12.980197440220513
_cell_length_c       18.033253966193843
_cell_angle_alpha    80.28491349185902
_cell_angle_beta     82.27528615032924
_cell_angle_gamma    82.36808019585818

_space_group_name_H-M_alt    "P 1"
_space_group_IT_number       1

loop_
  _space_group_symop_operation_xyz
  'x, y, z'

loop_
  _atom_site_type_symbol
  _atom_site_label
  _atom_site_symmetry_multiplicity
  _atom_site_fract_x
  _atom_site_fract_y
  _atom_site_fract_z
  _atom_site_occupancy
  H   H1        1.0  0.07442500129707914  0.42940128657520493  0.21895805912478572  1.0000
  H   H2        1.0  0.9255749984496572  0.5705987132621552  0.7810419411796393  1.0000
  H   H3        1.0  0.14774928179495947  0.43101859558464994  0.08044732783717289  1.0000
  H   H4        1.0  0.8522507193494563  0.5689814042555098  0.9195526718361863  1.0000
  H   H5        1.0  0.9139601554299274  0.381433827018168  0.006672543911419556  1.0000
  H   H6        1.0  0.08603984415180614  0.6185661736058142  0.9933274563059208  1.0000
  H   H7        1.0  0.6059101626815064  0.3292742827343147  0.07273345365217154  1.0000
  H   H8        1.0  0.3940898370624025  0.6707257171024767  0.9272665460979447  1.0000
  H   H9        1.0  0.5336114963388752  0.32568058577174097  0.21162149912484304  1.0000
  H   H10       1.0  0.4663885048055406  0.6743194140684188  0.7883785005485162  1.0000
  H   H11       1.0  0.01024546407755382  0.1766960355458432  0.7183260871408113  1.0000
  H   H12       1.0  0.9897545355013523  0.8233039650775704  0.28167391252222024  1.0000
  H   H13       1.0  0.9289431666959036  0.17570730976195506  0.8566917176660325  1.0000
  H   H14       1.0  0.0710568330508328  0.8242926900754052  0.14330828263839254  1.0000
  H   H15       1.0  0.6201626021222622  0.12170891839784381  0.9204198613027932  1.0000
  H   H16       1.0  0.3798373974566441  0.8782910822255698  0.07958013836023843  1.0000
  H   H17       1.0  0.3956710903692749  0.06615232038180874  0.8451616291275623  1.0000
  H   H18       1.0  0.6043289093774614  0.9338476794555515  0.15483837117686283  1.0000
  H   H19       1.0  0.47746917674075556  0.0655015788812836  0.7071271289599627  1.0000
  H   H20       1.0  0.522530822840978  0.9344984217426987  0.29287287125737765  1.0000
  C   C1        1.0  0.5437839560776865  0.37578433230441727  0.6575528119419644  1.0000
  C   C2        1.0  0.45621604506955665  0.6242156675363113  0.34244718828570364  1.0000
  C   C3        1.0  0.5886663726687231  0.3772650585154596  0.5892514800649041  1.0000
  C   C4        1.0  0.41133362691018305  0.6227349421079539  0.4107485195981274  1.0000
  C   C5        1.0  0.6361085823171847  0.3786957759929684  0.5148659210795881  1.0000
  C   C6        1.0  0.3638914174267243  0.6213042238438231  0.48513407867052805  1.0000
  C   C7        1.0  0.6775991021966475  0.37962292363544164  0.4460146222063257  1.0000
  C   C8        1.0  0.32240089895059537  0.6203770762052868  0.5539853780213424  1.0000
  C   C9        1.0  0.7202347499981926  0.37958578225881084  0.37151161293026247  1.0000
  C   C10       1.0  0.2797652497457165  0.6204142175779807  0.6284883868198536  1.0000
  C   C11       1.0  0.757041159730217  0.3782641278234241  0.3030415584779778  1.0000
  C   C12       1.0  0.24295884001651943  0.621735872013936  0.6969584418264473  1.0000
  C   C13       1.0  0.49060058327877204  0.37484949398505807  0.7352221824997955  1.0000
  C   C14       1.0  0.5093994164679645  0.625150505852302  0.26477781780462945  1.0000
  C   C15       1.0  0.6133159914350487  0.399058462439086  0.7828634847467819  1.0000
  C   C16       1.0  0.3866840083116877  0.600941537398274  0.21713651555764313  1.0000
  C   C17       1.0  0.5598399077554914  0.39913374992799194  0.8598124486745019  1.0000
  C   C18       1.0  0.44016009339175144  0.6008662499127365  0.1401875515531662  1.0000
  C   C19       1.0  0.3805781175547721  0.37482976403301527  0.8915729041435803  1.0000
  C   C20       1.0  0.619421882189137  0.6251702358037763  0.10842709560653589  1.0000
  C   C21       1.0  0.2554185542268136  0.3506864036322918  0.8461347541482289  1.0000
  C   C22       1.0  0.7445814455199228  0.6493135962050682  0.15386524615619604  1.0000
  C   C23       1.0  0.31074556838328476  0.3503466363455951  0.769348698796671  1.0000
  C   C24       1.0  0.6892544313634517  0.649653363491765  0.230651301507754  1.0000
  C   C25       1.0  0.7987837176183251  0.37802386331111143  0.22446580300272298  1.0000
  C   C26       1.0  0.2012162821284112  0.6219761365262487  0.775534197301702  1.0000
  C   C27       1.0  0.9731894443152346  0.40714902849255113  0.18663124990899216  1.0000
  C   C28       1.0  0.026810556832008583  0.5928509713481773  0.813368750318676  1.0000
  C   C29       1.0  0.013355098942879206  0.4078439737606399  0.10894677334567147  1.0000
  C   C30       1.0  0.9866449008010298  0.5921560260761516  0.8910532264044446  1.0000
  C   C31       1.0  0.8817034331891076  0.38026955653060796  0.06755987920347943  1.0000
  C   C32       1.0  0.1182965665576287  0.6197304433067521  0.9324401211009455  1.0000
  C   C33       1.0  0.7086705009423045  0.35128634552102955  0.10461030717465816  1.0000
  C   C34       1.0  0.29132949880160447  0.648713654315762  0.895389692575458  1.0000
  C   C35       1.0  0.6667932897884459  0.3495797483482809  0.18238580862321682  1.0000
  C   C36       1.0  0.33320671135596985  0.650420251491879  0.8176141910501423  1.0000
  C   C37       1.0  0.010205608465714886  0.12755536840833762  0.27059578443140286  1.0000
  C   C38       1.0  0.9897943911160187  0.8724446322156446  0.7294042157859376  1.0000
  C   C39       1.0  0.9677336869853391  0.1265261151018659  0.3389917083562487  1.0000
  C   C40       1.0  0.03226631275856985  0.8734738847349256  0.6610082913938674  1.0000
  C   C41       1.0  0.9223424284751714  0.12570854358248149  0.4133679041190591  1.0000
  C   C42       1.0  0.07765757127156477  0.8742914562548786  0.5866320961853659  1.0000
  C   C43       1.0  0.8807449637624837  0.12464398795953388  0.4822207288984855  1.0000
  C   C44       1.0  0.11925503598142542  0.8753560118772575  0.5177792708516307  1.0000
  C   C45       1.0  0.8357737772768818  0.12352818543064259  0.5566794190035664  1.0000
  C   C46       1.0  0.16422622386753377  0.8764718144095173  0.44332058066979263  1.0000
  C   C47       1.0  0.7951648761813692  0.12241219815089069  0.6252112302173393  1.0000
  C   C48       1.0  0.20483512356536718  0.8775878016864693  0.3747887700870858  1.0000
  C   C49       1.0  0.05951296538809323  0.12870359769387574  0.19270474541494256  1.0000
  C   C50       1.0  0.9404870343586432  0.8712964021434842  0.8072952548894826  1.0000
  C   C51       1.0  0.23841774841951574  0.15262474613671398  0.15711333590912735  1.0000
  C   C52       1.0  0.7615822527249  0.8473752537034459  0.8428866637642318  1.0000
  C   C53       1.0  0.28982503760186085  0.1518254311300304  0.08018319770637451  1.0000
  C   C54       1.0  0.7101749619798726  0.8481745694939519  0.9198168025109659  1.0000
  C   C55       1.0  0.16061995772122592  0.12957396780789265  0.03574837008273016  1.0000
  C   C56       1.0  0.8393800420226831  0.8704260320288989  0.9642516296673861  1.0000
  C   C57       1.0  0.9810134291470434  0.1073973278153306  0.06872048650033474  1.0000
  C   C58       1.0  0.01898657059969296  0.8926026720220295  0.9312795138040902  1.0000
  C   C59       1.0  0.9330778393541681  0.10577604840733865  0.1461061057937883  1.0000
  C   C60       1.0  0.06692216039256835  0.8942239514300215  0.8538938945106368  1.0000
  C   C61       1.0  0.749021492766226  0.1215036947612625  0.7036687153854151  1.0000
  C   C62       1.0  0.2509785069776828  0.8784963050755291  0.29633128436470096  1.0000
  C   C63       1.0  0.8766269695375033  0.15214560253636597  0.7466607156060897  1.0000
  C   C64       1.0  0.12337303020923306  0.8478543973009941  0.25333928469833544  1.0000
  C   C65       1.0  0.8299694251381112  0.15153581586043152  0.8241161232313987  1.0000
  C   C66       1.0  0.1700305746057977  0.84846418397636  0.1758838765187174  1.0000
  C   C67       1.0  0.6564790298214151  0.1214321083174433  0.8598140753076225  1.0000
  C   C68       1.0  0.34352096992532116  0.8785678915199168  0.1401859249968025  1.0000
  C   C69       1.0  0.5297921456961752  0.09089603611703116  0.8175330379082406  1.0000
  C   C70       1.0  0.4702078540505611  0.9091039637203289  0.18246696239618448  1.0000
  C   C71       1.0  0.5748067504051775  0.09021050611587468  0.7401326782302085  1.0000
  C   C72       1.0  0.4251932507420656  0.9097894937248536  0.25986732199745954  1.0000
  C   C73       1.0  0.4613614559823124  0.0446256316538285  0.4936514226258383  1.0000
  C   C74       1.0  0.5386385437615967  0.9553743681829631  0.5063485771242778  1.0000
  C   C75       1.0  0.37150955051642015  0.1472664403407637  0.47809405086686635  1.0000
  C   C76       1.0  0.628490449227489  0.8527335594960278  0.5219059488832497  1.0000
  C   C77       1.0  0.2711626592780472  0.19976296865648765  0.535887762343577  1.0000
  C   C78       1.0  0.7288373418663684  0.8002370311836723  0.46411223732978213  1.0000
  C   C79       1.0  0.17757055989062245  0.3004466430154668  0.5206234200970407  1.0000
  C   C80       1.0  0.8224294398561139  0.6995533568218931  0.4793765802073844  1.0000
  C   C81       1.0  0.18388482695933814  0.35182473114316665  0.44587565116003813  1.0000
  C   C82       1.0  0.8161151727845708  0.6481752686936247  0.5541243485900781  1.0000
  C   C83       1.0  0.2825216977330151  0.3018169151826507  0.3872907917890959  1.0000
  C   C84       1.0  0.7174783020108939  0.6981830846541409  0.6127092079610202  1.0000
  C   C85       1.0  0.37549852173071546  0.20129157524623603  0.4034360339339306  1.0000
  C   C86       1.0  0.624501477851018  0.7987084253777462  0.5965639662834098  1.0000
  F   F1        1.0  0.7870354859706895  0.42255562383618894  0.753422258239534  1.0000
  F   F2        1.0  0.2129645137760468  0.5774443760011712  0.24657774206489108  1.0000
  F   F3        1.0  0.6798298642560406  0.42245155644044435  0.9044043231803227  1.0000
  F   F4        1.0  0.3201701353228654  0.5775484441829694  0.09559567648270886  1.0000
  F   F5        1.0  0.328598207787783  0.37447804991544703  0.966183874741341  1.0000
  F   F6        1.0  0.6714017919589533  0.6255219499219131  0.03381612556308394  1.0000
  F   F7        1.0  0.08139021057743961  0.3282509931729891  0.877035388143463  1.0000
  F   F8        1.0  0.9186097891664694  0.6717490066638024  0.1229646116066531  1.0000
  F   F9        1.0  0.1878698640663921  0.3266172943615165  0.726675398443416  1.0000
  F   F10       1.0  0.8121301356775168  0.6733827054752749  0.2733246013067003  1.0000
  F   F11       1.0  0.36422619712163556  0.17627749894989372  0.19850519314047524  1.0000
  F   F12       1.0  0.6357738026251009  0.8237225008874662  0.8014948071639498  1.0000
  F   F13       1.0  0.46449739420100666  0.17171320273619436  0.048157880764892025  1.0000
  F   F14       1.0  0.5355026053778994  0.8282867978872193  0.9518421188981395  1.0000
  F   F15       1.0  0.2095322895869021  0.1296753626176916  0.9609959533665905  1.0000
  F   F16       1.0  0.7904677101598342  0.8703246372196686  0.03900404693783456  1.0000
  F   F17       1.0  0.8551937724879481  0.0884050762736771  0.024952401324984344  1.0000
  F   F18       1.0  0.14480622725878814  0.911594923563683  0.9750475989794408  1.0000
  F   F19       1.0  0.7604165868247006  0.08201632054366331  0.1771153757201871  1.0000
  F   F20       1.0  0.23958341292203578  0.9179836792936966  0.822884624584238  1.0000
  F   F21       1.0  0.26334233005804975  0.15092969547093787  0.6083346570468141  1.0000
  F   F22       1.0  0.7366576696858593  0.8490703043658537  0.39166534270330194  1.0000
  F   F23       1.0  0.08115350146276361  0.34799653710969675  0.5769701981108244  1.0000
  F   F24       1.0  0.9188464996844792  0.6520034627310318  0.4230298021168436  1.0000
  F   F25       1.0  0.09643545808985525  0.44930954128011114  0.430102972082795  1.0000
  F   F26       1.0  0.9035645416540536  0.5506904585566804  0.5698970276673211  1.0000
  F   F27       1.0  0.2873329646013182  0.35210947829160133  0.3152442395304412  1.0000
  F   F28       1.0  0.7126670351454183  0.6478905215457588  0.6847557607739838  1.0000
  F   F29       1.0  0.47095476701309696  0.1546353620690339  0.3462453246521761  1.0000
  F   F30       1.0  0.5290452341341462  0.8453646377716946  0.6537546755754919  1.0000
