data_image0
_chemical_formula_structural       H16C52N4F16I8
_chemical_formula_sum              "H16 C52 N4 F16 I8"
_cell_length_a       7.269921825968608
_cell_length_b       10.956425947775612
_cell_length_c       17.291999142693204
_cell_angle_alpha    82.04861830998252
_cell_angle_beta     88.56979127552515
_cell_angle_gamma    80.46148991456744

_space_group_name_H-M_alt    "P 1"
_space_group_IT_number       1

loop_
  _space_group_symop_operation_xyz
  'x, y, z'

loop_
  _atom_site_type_symbol
  _atom_site_label
  _atom_site_symmetry_multiplicity
  _atom_site_fract_x
  _atom_site_fract_y
  _atom_site_fract_z
  _atom_site_occupancy
  H   H1        1.0  0.2927809939409219  0.12460805763260115  0.9335771810055359  1.0000
  H   H2        1.0  0.7072190055378729  0.8753919431663504  0.06642281910780218  1.0000
  H   H3        1.0  0.2306005505285258  0.5260559001734502  0.9252487269702327  1.0000
  H   H4        1.0  0.7693994491890758  0.4739440996999281  0.07475127314349995  1.0000
  H   H5        1.0  0.36296131849773045  0.5344539293269558  0.7899995555338425  1.0000
  H   H6        1.0  0.6370386812198712  0.46554607054642244  0.2100004445798902  1.0000
  H   H7        1.0  0.44813192303827515  0.3347740230229204  0.7320189105355118  1.0000
  H   H8        1.0  0.5518680766793264  0.6652259768504579  0.26798108957822087  1.0000
  H   H9        1.0  0.9193474245443274  0.4675291604088883  0.3131589358923553  1.0000
  H   H10       1.0  0.08065257630862296  0.532470840394261  0.6868410642254476  1.0000
  H   H11       1.0  0.9605723929464669  0.06737324384293798  0.32082047056581364  1.0000
  H   H12       1.0  0.03942760677113476  0.9326267560304403  0.679179529547919  1.0000
  H   H13       1.0  0.8362161215036933  0.06091685862384381  0.45723764268522876  1.0000
  H   H14       1.0  0.16378387822748486  0.9390831413761079  0.5427623568446038  1.0000
  H   H15       1.0  0.7525931532593962  0.26147121435078907  0.5141097197700187  1.0000
  H   H16       1.0  0.24740684647178188  0.7385287856491626  0.48589027975981386  1.0000
  C   C1        1.0  0.5600038126989452  0.8896360100486301  0.674333421714972  1.0000
  C   C2        1.0  0.43999618701865645  0.11036398982474807  0.3256665783987607  1.0000
  C   C3        1.0  0.6288309911519089  0.9210124806409078  0.5995537775682114  1.0000
  C   C4        1.0  0.37116900832688593  0.07898752015804367  0.40044622254512663  1.0000
  C   C5        1.0  0.6771144620611288  0.8319176028696239  0.5491971706864014  1.0000
  C   C6        1.0  0.32288553767004924  0.16808239713032805  0.45080282884343126  1.0000
  C   C7        1.0  0.6597343477254054  0.7073370635507114  0.5716212094466695  1.0000
  C   C8        1.0  0.3402656519921961  0.29266293632266693  0.4283787906670632  1.0000
  C   C9        1.0  0.5929604144380384  0.6755182706436134  0.646853454873282  1.0000
  C   C10       1.0  0.40703958527956324  0.32448172922976487  0.3531465452404508  1.0000
  C   C11       1.0  0.5443041085222261  0.7647348526035201  0.6971068394162255  1.0000
  C   C12       1.0  0.4556958911953756  0.2352651472698581  0.30289316069750716  1.0000
  C   C13       1.0  0.7736934974585598  0.19575654581945082  0.9494915073226325  1.0000
  C   C14       1.0  0.22630650202023495  0.8042434549795008  0.050508492790705475  1.0000
  C   C15       1.0  0.835115385461449  0.09675849974505302  0.9073021683713188  1.0000
  C   C16       1.0  0.16488461425615272  0.9032415001283253  0.09269783174241396  1.0000
  C   C17       1.0  0.8966959679022996  0.11773473407483229  0.830340790613319  1.0000
  C   C18       1.0  0.10330403320303425  0.8822652659293173  0.1696592089209784  1.0000
  C   C19       1.0  0.895943929255944  0.2388901601227772  0.7923967664007625  1.0000
  C   C20       1.0  0.10405607047523423  0.7611098398771744  0.20760323312907009  1.0000
  C   C21       1.0  0.8354612753650603  0.33803474350975526  0.8346249339017556  1.0000
  C   C22       1.0  0.164538725726697  0.6619652563678207  0.16537506621644188  1.0000
  C   C23       1.0  0.775288096546512  0.3167860598988659  0.9118016001858106  1.0000
  C   C24       1.0  0.22471190317108958  0.6832139399745123  0.0881983999279222  1.0000
  C   C25       1.0  0.304562590954837  0.21721772817797816  0.9032035470139159  1.0000
  C   C26       1.0  0.6954374087763413  0.7827822718219737  0.09679645251591674  1.0000
  C   C27       1.0  0.2500480379382265  0.3245878892667268  0.9405693293444581  1.0000
  C   C28       1.0  0.7499519617793752  0.6754121106066514  0.05943067076927462  1.0000
  C   C29       1.0  0.27021248223646493  0.4413494293238404  0.8984500956810727  1.0000
  C   C30       1.0  0.7297875174811366  0.5586505705495379  0.10154990443266002  1.0000
  C   C31       1.0  0.34257528834564044  0.4459543715243053  0.8232245879223096  1.0000
  C   C32       1.0  0.6574247127461166  0.5540456283532706  0.17677541219588794  1.0000
  C   C33       1.0  0.3915598041555771  0.33506213658056755  0.7910890461689363  1.0000
  C   C34       1.0  0.6084401955620246  0.6649378632928106  0.20891095394479656  1.0000
  C   C35       1.0  0.1820304898767703  0.31365655333310405  0.01767984388781274  1.0000
  C   C36       1.0  0.8179695098408314  0.6863434465402741  0.9823201562259201  1.0000
  C   C37       1.0  0.12842697055730756  0.3025302904556143  0.0857102701033588  1.0000
  C   C38       1.0  0.8715730291738705  0.6974697095443375  0.9142897294264739  1.0000
  C   C39       1.0  0.06979364665895121  0.28971128067140384  0.16027675718067996  1.0000
  C   C40       1.0  0.9302063530722271  0.710288719328548  0.8397232423491527  1.0000
  C   C41       1.0  0.01480812248735234  0.27913911921426754  0.2280620647561236  1.0000
  C   C42       1.0  0.9851918772302494  0.7208608806591107  0.7719379353576092  1.0000
  C   C43       1.0  0.9003260474702358  0.3759566434035845  0.34307566978915777  1.0000
  C   C44       1.0  0.09967395226094244  0.6240433565963672  0.6569243297406749  1.0000
  C   C45       1.0  0.9480134337142506  0.26853479836899435  0.305298948142825  1.0000
  C   C46       1.0  0.05198656600335108  0.7314652015043839  0.6947010519709077  1.0000
  C   C47       1.0  0.9252565121017898  0.1523938599984841  0.3476816900306672  1.0000
  C   C48       1.0  0.07474348898996738  0.847606139879092  0.6523183100875303  1.0000
  C   C49       1.0  0.8564858566105437  0.14889945242246277  0.42343188615455774  1.0000
  C   C50       1.0  0.14351414310705785  0.8511005474509155  0.5765681139591748  1.0000
  C   C51       1.0  0.8101494506776858  0.26027689275587595  0.4552536145789225  1.0000
  C   C52       1.0  0.18985055041407142  0.7397231071217001  0.544746385539275  1.0000
  N   N1        1.0  0.3723767639106181  0.22309335978058423  0.8305889485876713  1.0000
  N   N2        1.0  0.6276232358069834  0.7769066400927941  0.16941105152606148  1.0000
  N   N3        1.0  0.8323525257205707  0.3714278413783114  0.41559087252688404  1.0000
  N   N4        1.0  0.16764747399703095  0.6285721584950668  0.5844091275868487  1.0000
  F   F1        1.0  0.651895480228742  0.040864706501232334  0.5746027987674659  1.0000
  F   F2        1.0  0.3481045194888596  0.9591352933721459  0.42539720134626685  1.0000
  F   F3        1.0  0.7443322623266632  0.8685833359790169  0.4770459889452852  1.0000
  F   F4        1.0  0.2556677373909384  0.13141666389436144  0.5229540111684475  1.0000
  F   F5        1.0  0.5719587746947545  0.555596217561735  0.6720120986874059  1.0000
  F   F6        1.0  0.428041225022847  0.4444037823116432  0.3279879014263269  1.0000
  F   F7        1.0  0.4781874838785791  0.7280382090639536  0.7693759231395035  1.0000
  F   F8        1.0  0.5218125172131779  0.27196179081362254  0.23062407697869403  1.0000
  F   F9        1.0  0.8338017481522837  0.9777629226722154  0.9405116291487153  1.0000
  F   F10       1.0  0.16619825134008775  0.022237078253309502  0.059488370380722536  1.0000
  F   F11       1.0  0.9567364676876156  0.01815123369416439  0.7929035606748155  1.0000
  F   F12       1.0  0.043263533404141796  0.9818487661834115  0.2070964394433819  1.0000
  F   F13       1.0  0.8336915020112479  0.4571268066982635  0.8011973154970206  1.0000
  F   F14       1.0  0.1663084977063536  0.5428731931751147  0.19880268461671224  1.0000
  F   F15       1.0  0.716379136740566  0.4165365558987774  0.9493198651913389  1.0000
  F   F16       1.0  0.2836208629770356  0.5834634439746009  0.050680134922393774  1.0000
  I   I1        1.0  0.47589537864388304  0.028014124766411373  0.7481285355779143  1.0000
  I   I2        1.0  0.5241046222090672  0.9719858760367379  0.25187146453988857  1.0000
  I   I3        1.0  0.7348912699214759  0.5704504221378811  0.4963674051475079  1.0000
  I   I4        1.0  0.2651087297961257  0.429549577735497  0.5036325949662249  1.0000
  I   I5        1.0  0.6787241903484794  0.16252975306965406  0.06401194788391926  1.0000
  I   I6        1.0  0.3212758093691222  0.8374702468037242  0.9359880522298134  1.0000
  I   I7        1.0  0.9814779889596668  0.27152201475726795  0.6763715375665715  1.0000
  I   I8        1.0  0.01852201213209049  0.728477985120308  0.323628462551626  1.0000
