data_image0
_chemical_formula_structural       H12C28N2F4I2
_chemical_formula_sum              "H12 C28 N2 F4 I2"
_cell_length_a       3.919927722184431
_cell_length_b       7.498170993322728
_cell_length_c       20.14997195182268
_cell_angle_alpha    80.64666443330822
_cell_angle_beta     84.17838832151254
_cell_angle_gamma    82.6588189669256

_space_group_name_H-M_alt    "P 1"
_space_group_IT_number       1

loop_
  _space_group_symop_operation_xyz
  'x, y, z'

loop_
  _atom_site_type_symbol
  _atom_site_label
  _atom_site_symmetry_multiplicity
  _atom_site_fract_x
  _atom_site_fract_y
  _atom_site_fract_z
  _atom_site_occupancy
  H   H1        1.0  0.08139280918682365  0.0950319220009021  0.29622464076612653  1.0000
  H   H2        1.0  0.9186071893272135  0.9049680788825996  0.7037753592889037  1.0000
  H   H3        1.0  0.7627265037317541  0.5855490601847189  0.4623590995018097  1.0000
  H   H4        1.0  0.2372734952683781  0.41445093955882323  0.537640900049125  1.0000
  H   H5        1.0  0.5429127022235404  0.2956601115245478  0.4518717553934928  1.0000
  H   H6        1.0  0.4570872988473644  0.7043398893434297  0.5481282446570943  1.0000
  H   H7        1.0  0.4557448905604397  0.2234848495597172  0.33975840700523907  1.0000
  H   H8        1.0  0.5442551079535977  0.7765151513237843  0.6602415930497911  1.0000
  H   H9        1.0  0.5832778720371743  0.4412056423779043  0.23567490077172798  1.0000
  H   H10       1.0  0.4167221293292553  0.5587943571452726  0.7643250992794269  1.0000
  H   H11       1.0  0.7828869366209408  0.7401165514920369  0.18209225324440867  1.0000
  H   H12       1.0  0.21711306218862128  0.259883448046664  0.8179077468111892  1.0000
  C   C1        1.0  0.35413482991249706  0.3711255297571189  0.051215929558094515  1.0000
  C   C2        1.0  0.6458651711584077  0.6288744711108585  0.9487840704924927  1.0000
  C   C3        1.0  0.4207699144239436  0.3371428110125189  0.9848140925664426  1.0000
  C   C4        1.0  0.5792300843856184  0.662857188526182  0.015185907489155106  1.0000
  C   C5        1.0  0.4346335183594786  0.5364823820026301  0.06497740213523472  1.0000
  C   C6        1.0  0.5653664827114259  0.4635176188653474  0.9350225979153525  1.0000
  C   C7        1.0  0.9860684637265611  0.9645245351380263  0.2964623464481925  1.0000
  C   C8        1.0  0.013931535083001276  0.035475464400674436  0.7035376536074053  1.0000
  C   C9        1.0  0.9141992697358211  0.852258543874634  0.3573792342288792  1.0000
  C   C10       1.0  0.08580072877821601  0.1477414570088675  0.642620765826151  1.0000
  C   C11       1.0  0.7918709815833098  0.6811092240905232  0.35498726193413793  1.0000
  C   C12       1.0  0.2081290169307274  0.3188907767929784  0.6450127381208922  1.0000
  C   C13       1.0  0.7193341619867676  0.5546205087172793  0.4131131641425835  1.0000
  C   C14       1.0  0.2806658393796618  0.4453794908058977  0.5868868359085714  1.0000
  C   C15       1.0  0.5985599552985081  0.39345389527957775  0.40703353583143376  1.0000
  C   C16       1.0  0.40144004321552884  0.6065461056039236  0.5929664642235964  1.0000
  C   C17       1.0  0.5489020601710118  0.3522405036116652  0.3429644651895166  1.0000
  C   C18       1.0  0.4510979388291203  0.6477594961318769  0.6570355343614181  1.0000
  C   C19       1.0  0.6196808643507492  0.4724650149722039  0.28525451761943244  1.0000
  C   C20       1.0  0.3803191346493831  0.5275349847713382  0.7147454819315023  1.0000
  C   C21       1.0  0.7425445040159194  0.6393852240707281  0.29013895302747766  1.0000
  C   C22       1.0  0.25745549479364277  0.3606147754679727  0.7098610470281201  1.0000
  C   C23       1.0  0.820308603993194  0.767383343807669  0.23228165016886573  1.0000
  C   C24       1.0  0.1796913975638058  0.23261665592034908  0.767718349377626  1.0000
  C   C25       1.0  0.9558854841865361  0.9099013422968476  0.4187201522643772  1.0000
  C   C26       1.0  0.04411451462302614  0.09009865724185331  0.5812798477912205  1.0000
  C   C27       1.0  0.9855219194764652  0.9677884730211208  0.4712766366492677  1.0000
  C   C28       1.0  0.014478079333096909  0.03221152651758019  0.5287233634063301  1.0000
  N   N1        1.0  0.940319404145351  0.922925483727701  0.23556332912639244  1.0000
  N   N2        1.0  0.059680597221078754  0.07707451579547593  0.7644366709247624  1.0000
  F   F1        1.0  0.34364584693985584  0.18095816626067524  0.9673514809566315  1.0000
  F   F2        1.0  0.6563541544265736  0.8190418332625017  0.032648519094523466  1.0000
  F   F3        1.0  0.3737314225720602  0.5777404652665388  0.12887788956018487  1.0000
  F   F4        1.0  0.626268576428072  0.4222595344770034  0.8711221099907498  1.0000
  I   I1        1.0  0.1596920654676345  0.1758898241479193  0.12816921733154485  1.0000
  I   I2        1.0  0.8403079333419278  0.8241101753907816  0.8718307827240529  1.0000
