data_image0
_chemical_formula_structural       H12C24N2I4
_chemical_formula_sum              "H12 C24 N2 I4"
_cell_length_a       7.2640199396576755
_cell_length_b       19.168299979633428
_cell_length_c       4.123279867319343
_cell_angle_alpha    94.51251498429284
_cell_angle_beta     100.2732494352477
_cell_angle_gamma    96.31729779657262

_space_group_name_H-M_alt    "P 1"
_space_group_IT_number       1

loop_
  _space_group_symop_operation_xyz
  'x, y, z'

loop_
  _atom_site_type_symbol
  _atom_site_label
  _atom_site_symmetry_multiplicity
  _atom_site_fract_x
  _atom_site_fract_y
  _atom_site_fract_z
  _atom_site_occupancy
  H   H1        1.0  0.94158819605368  0.2880283814819995  0.392105445930636  1.0000
  H   H2        1.0  0.0584118040826406  0.7119716189052488  0.6078945531218465  1.0000
  H   H3        1.0  0.5567245379139981  0.4587679850941069  0.7622517795723041  1.0000
  H   H4        1.0  0.44327546205870255  0.5412320147680664  0.23774821947028654  1.0000
  H   H5        1.0  0.2608996043845525  0.4449654893116884  0.9889566880695874  1.0000
  H   H6        1.0  0.739100395993247  0.5550345111265494  0.011043313459811245  1.0000
  H   H7        1.0  0.11538157859945912  0.32706315251938606  0.07726455012038103  1.0000
  H   H8        1.0  0.8846184213732415  0.6729368473427871  0.9227354489222096  1.0000
  H   H9        1.0  0.2598149648484375  0.21949600442741482  0.9317995113444634  1.0000
  H   H10       1.0  0.7401850353657417  0.7805039954857478  0.06820049017504348  1.0000
  H   H11       1.0  0.5182980668471605  0.1663711778208362  0.7178115030590648  1.0000
  H   H12       1.0  0.4817019331255401  0.833628822041337  0.28218849598352574  1.0000
  C   C1        1.0  0.040813019012961735  0.03114994720990943  0.08187698766822268  1.0000
  C   C2        1.0  0.9591869812012175  0.9688500527032532  0.9181230138512843  1.0000
  C   C3        1.0  0.8147495234808358  0.2873476645151323  0.4992891505389394  1.0000
  C   C4        1.0  0.1852504764918648  0.712652335347041  0.5007108485036512  1.0000
  C   C5        1.0  0.7479126023251657  0.3505294670157049  0.585474411722282  1.0000
  C   C6        1.0  0.252087397647535  0.6494705328464684  0.4145255873203086  1.0000
  C   C7        1.0  0.5779821531804755  0.3469079455789212  0.7192344661013301  1.0000
  C   C8        1.0  0.422017846792225  0.653092054283252  0.2807655329412605  1.0000
  C   C9        1.0  0.4925858389035514  0.40681757122530054  0.8025423671398032  1.0000
  C   C10       1.0  0.507414161474248  0.5931824292129373  0.19745763438959546  1.0000
  C   C11       1.0  0.3285169805543559  0.39891893617815627  0.9284877425324254  1.0000
  C   C12       1.0  0.6714830194183448  0.6010810636840169  0.07151225651016527  1.0000
  C   C13       1.0  0.24448084483195143  0.33138902100954465  0.9767917742174506  1.0000
  C   C14       1.0  0.7555191551407492  0.6686109788526287  0.02320822482514006  1.0000
  C   C15       1.0  0.3243025126291041  0.2718859120368364  0.8971861240959338  1.0000
  C   C16       1.0  0.6756974875850752  0.7281140878763263  0.10281387742357315  1.0000
  C   C17       1.0  0.4925323211203203  0.27858646576705043  0.7664499520858756  1.0000
  C   C18       1.0  0.5074676790938589  0.7214135341461123  0.23355004943363125  1.0000
  C   C19       1.0  0.5790351907114617  0.21895203441753486  0.6781082038635451  1.0000
  C   C20       1.0  0.42096480926123886  0.7810479654446384  0.3218917951790456  1.0000
  C   C21       1.0  0.8487467347555953  0.41505472831671225  0.5442739162948332  1.0000
  C   C22       1.0  0.151253265458584  0.5849452715964505  0.45572608522467367  1.0000
  C   C23       1.0  0.9460352908972491  0.47002786223820037  0.5145576302636629  1.0000
  C   C24       1.0  0.05396470931693018  0.5299721376749624  0.4854423712558441  1.0000
  N   N1        1.0  0.7324248714715514  0.22322801146443652  0.5445886817809646  1.0000
  N   N2        1.0  0.2675751285011492  0.7767719883977369  0.455411317261626  1.0000
  I   I1        1.0  0.8976418229333837  0.11056768263584421  0.27959083586045624  1.0000
  I   I2        1.0  0.10235817582302517  0.8894323177543877  0.7204091631487803  1.0000
  I   I3        1.0  0.3354922960456895  0.05796477701919401  0.16679830471928403  1.0000
  I   I4        1.0  0.6645077039270112  0.9420352228429794  0.8332016943233066  1.0000
