data_image0
_chemical_formula_structural       H72C80N16O24
_chemical_formula_sum              "H72 C80 N16 O24"
_cell_length_a       20.68428264569055
_cell_length_b       5.217715097720681
_cell_length_c       18.874144774573757
_cell_angle_alpha    90.0
_cell_angle_beta     118.41600385245148
_cell_angle_gamma    90.0

_space_group_name_H-M_alt    "P 1"
_space_group_IT_number       1

loop_
  _space_group_symop_operation_xyz
  'x, y, z'

loop_
  _atom_site_type_symbol
  _atom_site_label
  _atom_site_symmetry_multiplicity
  _atom_site_fract_x
  _atom_site_fract_y
  _atom_site_fract_z
  _atom_site_occupancy
  H   H1        1.0  0.7962577413220482  0.3622238632434384  0.8929827900854425  1.0000
  H   H2        1.0  0.2037422582661475  0.3622238632434384  0.6070172097621196  1.0000
  H   H3        1.0  0.2962577413269508  0.8622238634618595  0.8929827902187958  1.0000
  H   H4        1.0  0.7037422582612448  0.8622238634618595  0.6070172096287663  1.0000
  H   H5        1.0  0.20374225848814512  0.6377761371934039  0.10701720992482938  1.0000
  H   H6        1.0  0.7962577415440458  0.6377761371934039  0.39298279024815236  1.0000
  H   H7        1.0  0.7037422584832423  0.13777613697498273  0.10701720979147608  1.0000
  H   H8        1.0  0.2962577415489484  0.13777613697498273  0.39298279038150563  1.0000
  H   H9        1.0  0.7572904501888165  0.7199905532674806  0.7925639551667643  1.0000
  H   H10       1.0  0.24270954939937914  0.7199905532674806  0.7074360446807978  1.0000
  H   H11       1.0  0.25729045067586404  0.21999055304905946  0.7925639552971054  1.0000
  H   H12       1.0  0.7427095496584705  0.21999055304905946  0.7074360451498428  1.0000
  H   H13       1.0  0.24270954962137678  0.28000944716936166  0.20743604484350764  1.0000
  H   H14       1.0  0.7572904501468203  0.28000944716936166  0.29256395472707586  1.0000
  H   H15       1.0  0.7427095496164742  0.7800094473877828  0.20743604471015437  1.0000
  H   H16       1.0  0.25729045015172286  0.7800094473877828  0.29256395486042913  1.0000
  H   H17       1.0  0.5374517659375928  0.5939282793255138  0.7200841493595249  1.0000
  H   H18       1.0  0.46254823413274776  0.5939282793255138  0.7799158504850251  1.0000
  H   H19       1.0  0.03745176594249543  0.09392827910709277  0.7200841494928781  1.0000
  H   H20       1.0  0.9625482341278451  0.09392827910709277  0.7799158503516718  1.0000
  H   H21       1.0  0.4625482343547453  0.4060717211113284  0.27991585064773483  1.0000
  H   H22       1.0  0.5374517656774456  0.4060717211113284  0.22008414952524688  1.0000
  H   H23       1.0  0.9625482343498427  0.9060717213297494  0.27991585051438156  1.0000
  H   H24       1.0  0.03745176568234819  0.9060717213297494  0.22008414965860018  1.0000
  H   H25       1.0  0.5661482608554251  0.22578373827168774  0.8168011569138672  1.0000
  H   H26       1.0  0.43385173873277044  0.22578373827168774  0.6831988429336948  1.0000
  H   H27       1.0  0.06614826134247269  0.7257837384901089  0.8168011570442084  1.0000
  H   H28       1.0  0.9338517387278678  0.7257837384901089  0.6831988428003415  1.0000
  H   H29       1.0  0.4338517389547681  0.7742162621651546  0.1831988430964047  1.0000
  H   H30       1.0  0.5661482610774228  0.7742162621651546  0.316801157076577  1.0000
  H   H31       1.0  0.9338517389498654  0.2742162619467334  0.18319884296305142  1.0000
  H   H32       1.0  0.06614826108232544  0.2742162619467334  0.31680115720993035  1.0000
  H   H33       1.0  0.68046897760206  0.7593616373823912  0.9726636611954953  1.0000
  H   H34       1.0  0.3195310224682804  0.7593616373823912  0.5273363386490547  1.0000
  H   H35       1.0  0.18046897760696282  0.2593616371639701  0.9726636613288486  1.0000
  H   H36       1.0  0.8195310224633778  0.2593616371639701  0.5273363385157015  1.0000
  H   H37       1.0  0.3195310222081332  0.2406383630544511  0.0273363388147767  1.0000
  H   H38       1.0  0.6804689778240577  0.2406383630544511  0.47266366135820503  1.0000
  H   H39       1.0  0.8195310222032305  0.7406383632728721  0.027336338681423388  1.0000
  H   H40       1.0  0.1804689778289604  0.7406383632728721  0.47266366149155836  1.0000
  H   H41       1.0  0.6055730097737217  0.9545107555174168  0.9052486782394134  1.0000
  H   H42       1.0  0.39442698981447394  0.9545107555174168  0.5947513216081487  1.0000
  H   H43       1.0  0.10557300977862437  0.4545107552989957  0.9052486783727667  1.0000
  H   H44       1.0  0.8944269898095711  0.4545107552989957  0.5947513214747953  1.0000
  H   H45       1.0  0.3944269900364715  0.04548924491942545  0.09475132177085858  1.0000
  H   H46       1.0  0.6055730099957193  0.04548924491942545  0.4052486784021232  1.0000
  H   H47       1.0  0.8944269900315689  0.5454892451378466  0.09475132163750527  1.0000
  H   H48       1.0  0.105573010000622  0.5454892451378466  0.40524867853547647  1.0000
  H   H49       1.0  0.4054263533455105  0.2986496849321493  0.5274285455541754  1.0000
  H   H50       1.0  0.5945736469888238  0.2986496849321493  0.9725714548927725  1.0000
  H   H51       1.0  0.905426353340608  0.7986496851505704  0.5274285454208222  1.0000
  H   H52       1.0  0.0945736467297326  0.7986496851505704  0.9725714544237277  1.0000
  H   H53       1.0  0.5945736469468276  0.7013503135881453  0.47257145445308424  1.0000
  H   H54       1.0  0.4054263528213694  0.7013503135881453  0.02742854511749923  1.0000
  H   H55       1.0  0.09457364695173022  0.20135031528627187  0.47257145458643757  1.0000
  H   H56       1.0  0.9054263530804607  0.20135031528627187  0.027428545586544166  1.0000
  H   H57       1.0  0.3700607965151206  0.64401354176427  0.4270820606875464  1.0000
  H   H58       1.0  0.6299392035170703  0.64401354176427  0.07291793948543542  1.0000
  H   H59       1.0  0.8700607965102178  0.1440135415458488  0.427082060554193  1.0000
  H   H60       1.0  0.12993920352197302  0.1440135415458488  0.07291793961878873  1.0000
  H   H61       1.0  0.6299392037772176  0.3559864586725723  0.5729179393197134  1.0000
  H   H62       1.0  0.37006079629312283  0.3559864586725723  0.9270820605248364  1.0000
  H   H63       1.0  0.12993920378212023  0.8559864588909935  0.5729179394530667  1.0000
  H   H64       1.0  0.8700607962882203  0.8559864588909935  0.9270820603914831  1.0000
  H   H65       1.0  0.6237107742372112  0.8720916157319081  0.6951368894428275  1.0000
  H   H66       1.0  0.37628922583312935  0.8720916157319081  0.8048631104017225  1.0000
  H   H67       1.0  0.12371077424211382  0.37209161551348696  0.6951368895761807  1.0000
  H   H68       1.0  0.8762892260922206  0.37209161551348696  0.8048631108707673  1.0000
  H   H69       1.0  0.37628922605512694  0.12790838470493415  0.3048631105644324  1.0000
  H   H70       1.0  0.6237107739770639  0.12790838470493415  0.19513688960854939  1.0000
  H   H71       1.0  0.8762892260502242  0.6279083849233553  0.30486311043107905  1.0000
  H   H72       1.0  0.12371077420011761  0.6279083849233553  0.19513688913649235  1.0000
  C   C1        1.0  0.710196415656381  0.048944481486074255  0.9228256402024323  1.0000
  C   C2        1.0  0.2898035844139594  0.048944481486074255  0.5771743596421176  1.0000
  C   C3        1.0  0.21019641566128372  0.5489444817044954  0.9228256403357856  1.0000
  C   C4        1.0  0.7898035841909057  0.5489444817044954  0.5771743601141746  1.0000
  C   C5        1.0  0.2898035841538122  0.9510555170342202  0.07717435980783954  1.0000
  C   C6        1.0  0.7101964156143848  0.9510555170342202  0.42282563976274395  1.0000
  C   C7        1.0  0.7898035841489095  0.45105551873234684  0.07717435967448624  1.0000
  C   C8        1.0  0.21019641561928754  0.45105551873234684  0.4228256398960973  1.0000
  C   C9        1.0  0.6844382777122789  0.2661183916704399  0.8632309110741189  1.0000
  C   C10       1.0  0.3155617223580615  0.2661183916704399  0.6367690887704309  1.0000
  C   C11       1.0  0.18443827771718166  0.766118391888861  0.8632309112074723  1.0000
  C   C12       1.0  0.8155617223531589  0.766118391888861  0.6367690886370776  1.0000
  C   C13       1.0  0.3155617225800592  0.7338816087664023  0.13676908893314088  1.0000
  C   C14       1.0  0.6844382774521317  0.7338816087664023  0.36323091123984086  1.0000
  C   C15       1.0  0.8155617225751566  0.23388160854798123  0.13676908879978755  1.0000
  C   C16       1.0  0.18443827745703434  0.23388160854798123  0.36323091137319424  1.0000
  C   C17       1.0  0.738364281601782  0.4076179094042699  0.8557800884492046  1.0000
  C   C18       1.0  0.2616357184685585  0.4076179094042699  0.6442199113953454  1.0000
  C   C19       1.0  0.2383642816066847  0.907617909622691  0.8557800885825579  1.0000
  C   C20       1.0  0.7616357184636557  0.907617909622691  0.644219911261992  1.0000
  C   C21       1.0  0.2616357182084112  0.5923820891160247  0.14421991156106728  1.0000
  C   C22       1.0  0.7383642818237797  0.5923820891160247  0.35578008861191446  1.0000
  C   C23       1.0  0.7616357182035085  0.09238209081415123  0.14421991142771398  1.0000
  C   C24       1.0  0.23836428182868238  0.09238209081415123  0.35578008874526784  1.0000
  C   C25       1.0  0.7168432860828179  0.6059597526475096  0.8001580998359931  1.0000
  C   C26       1.0  0.28315671425151645  0.6059597526475096  0.699841900610955  1.0000
  C   C27       1.0  0.21684328582372667  0.10595975242908837  0.8001580993669482  1.0000
  C   C28       1.0  0.7831567142466137  0.10595975242908837  0.6998419004776018  1.0000
  C   C29       1.0  0.2831567142095202  0.39404024778933283  0.19984190017126668  1.0000
  C   C30       1.0  0.7168432855586768  0.39404024778933283  0.3001580993993168  1.0000
  C   C31       1.0  0.7831567144686113  0.894040248007754  0.1998419006403116  1.0000
  C   C32       1.0  0.2168432860457243  0.894040248007754  0.300158099529658  1.0000
  C   C33       1.0  0.5937379364688439  0.5326831204743536  0.7601872328965845  1.0000
  C   C34       1.0  0.4062620636014965  0.5326831204743536  0.7398127669479654  1.0000
  C   C35       1.0  0.09373793647374659  0.03268312025593257  0.7601872330299378  1.0000
  C   C36       1.0  0.9062620638605877  0.03268312025593257  0.7398127674170103  1.0000
  C   C37       1.0  0.40626206382349417  0.4673168780459409  0.2398127671106752  1.0000
  C   C38       1.0  0.5937379362086966  0.4673168780459409  0.26018723306230657  1.0000
  C   C39       1.0  0.9062620638185914  0.9673168782643621  0.2398127669773219  1.0000
  C   C40       1.0  0.09373793594960547  0.9673168782643621  0.2601872325932616  1.0000
  C   C41       1.0  0.6105357226800648  0.3304407365502152  0.8141335142076592  1.0000
  C   C42       1.0  0.3894642773902756  0.3304407365502152  0.6858664856368907  1.0000
  C   C43       1.0  0.11053572268496756  0.8304407367686363  0.8141335143410126  1.0000
  C   C44       1.0  0.8894642776493668  0.8304407367686363  0.6858664861059357  1.0000
  C   C45       1.0  0.3894642771301284  0.6695592638866271  0.1858664858026127  1.0000
  C   C46       1.0  0.6105357229020625  0.6695592638866271  0.314133514370369  1.0000
  C   C47       1.0  0.8894642771252257  0.16955926366820595  0.1858664856692594  1.0000
  C   C48       1.0  0.11053572264297129  0.16955926366820595  0.3141335139013241  1.0000
  C   C49       1.0  0.5411116082721811  0.09406715215524301  0.618101572164231  1.0000
  C   C50       1.0  0.4588883917981594  0.09406715215524301  0.8818984276803189  1.0000
  C   C51       1.0  0.04111160827708378  0.5940671523736641  0.6181015722975844  1.0000
  C   C52       1.0  0.9588883917932568  0.5940671523736641  0.8818984275469655  1.0000
  C   C53       1.0  0.45888839153801214  0.9059328482815993  0.3818984278460408  1.0000
  C   C54       1.0  0.5411116084941787  0.9059328482815993  0.11810157232694096  1.0000
  C   C55       1.0  0.9588883915331096  0.4059328480631781  0.38189842771268745  1.0000
  C   C56       1.0  0.04111160849908141  0.4059328480631781  0.11810157246029428  1.0000
  C   C57       1.0  0.5201696042068263  0.3033482952511967  0.5571816961054902  1.0000
  C   C58       1.0  0.47983039612750805  0.3033482952511967  0.942818304341458  1.0000
  C   C59       1.0  0.020169603947735086  0.8033482935530701  0.5571816956364452  1.0000
  C   C60       1.0  0.9798303961226053  0.8033482935530701  0.9428183042081046  1.0000
  C   C61       1.0  0.47983039560336693  0.6966517051856456  0.4428183039047817  1.0000
  C   C62       1.0  0.52016960416483  0.6966517051856456  0.057181695665801766  1.0000
  C   C63       1.0  0.9798303958624581  0.19665170496722442  0.4428183043738267  1.0000
  C   C64       1.0  0.02016960416973277  0.19665170496722442  0.05718169579915508  1.0000
  C   C65       1.0  0.4470485957167331  0.38681163923297907  0.5157291496662818  1.0000
  C   C66       1.0  0.5529514038714624  0.38681163923297907  0.9842708501812801  1.0000
  C   C67       1.0  0.9470485959758244  0.8868116394514002  0.5157291501353267  1.0000
  C   C68       1.0  0.05295140387636511  0.8868116394514002  0.9842708503146335  1.0000
  C   C69       1.0  0.5529514040934601  0.6131883592873155  0.4842708503439901  1.0000
  C   C70       1.0  0.44704859593873075  0.6131883592873155  0.015729149828991616  1.0000
  C   C71       1.0  0.05295140383436892  0.11318836098544215  0.4842708498749452  1.0000
  C   C72       1.0  0.9470485959338281  0.11318836098544215  0.01572914969563831  1.0000
  C   C73       1.0  0.426975968897787  0.5815956761084257  0.45898052573179093  1.0000
  C   C74       1.0  0.5730240316165488  0.5815956761084257  0.04101947443817869  1.0000
  C   C75       1.0  0.9269759684107395  0.08159567780655225  0.45898052560144975  1.0000
  C   C76       1.0  0.0730240316214514  0.08159567780655225  0.041019474571531996  1.0000
  C   C77       1.0  0.573024031394551  0.41840432241186887  0.5410194742754687  1.0000
  C   C78       1.0  0.42697596867578935  0.41840432241186887  0.9589805255690811  1.0000
  C   C79       1.0  0.07302403139945372  0.91840432263029  0.541019474408822  1.0000
  C   C80       1.0  0.9269759686708866  0.91840432263029  0.9589805254357278  1.0000
  N   N1        1.0  0.6606432557291164  0.9124111724842309  0.9329248699956159  1.0000
  N   N2        1.0  0.33935674434122415  0.9124111724842309  0.567075129848934  1.0000
  N   N3        1.0  0.16064325573401897  0.4124111722658097  0.9329248701289692  1.0000
  N   N4        1.0  0.8393567443363217  0.4124111722658097  0.5670751297155808  1.0000
  N   N5        1.0  0.33935674408107697  0.08758882795261144  0.06707513001465605  1.0000
  N   N6        1.0  0.660643255951114  0.08758882795261144  0.4329248701583257  1.0000
  N   N7        1.0  0.8393567440761743  0.5875888281710325  0.06707512988130272  1.0000
  N   N8        1.0  0.1606432559560166  0.5875888281710325  0.43292487029167903  1.0000
  N   N9        1.0  0.6458599372409192  0.6666519357332317  0.7533691444142991  1.0000
  N   N10       1.0  0.35414006282942134  0.6666519357332317  0.7466308554302509  1.0000
  N   N11       1.0  0.14585993724582186  0.16665193551481047  0.7533691445476524  1.0000
  N   N12       1.0  0.8541400630885124  0.16665193551481047  0.7466308558992957  1.0000
  N   N13       1.0  0.354140063051419  0.33334806470361067  0.24663085559296063  1.0000
  N   N14       1.0  0.6458599369807719  0.33334806470361067  0.25336914458002113  1.0000
  N   N15       1.0  0.8541400630465161  0.833348063005484  0.24663085545960733  1.0000
  N   N16       1.0  0.14585993672168077  0.833348063005484  0.25336914411097616  1.0000
  O   O1        1.0  0.7778788738472887  0.00201256676597526  0.959975883513404  1.0000
  O   O2        1.0  0.22212112574090695  0.00201256676597526  0.5400241163341579  1.0000
  O   O3        1.0  0.27787887433433617  0.5020125669843963  0.9599758836437453  1.0000
  O   O4        1.0  0.7221211257360042  0.5020125669843963  0.5400241162008046  1.0000
  O   O5        1.0  0.22212112596290456  0.997987433670867  0.04002411649686779  1.0000
  O   O6        1.0  0.7778788740692864  0.997987433670867  0.459975883676114  1.0000
  O   O7        1.0  0.7221211259580019  0.4979874334524459  0.04002411636351448  1.0000
  O   O8        1.0  0.27787887407418893  0.4979874334524459  0.45997588380946725  1.0000
  O   O9        1.0  0.6108680453401755  0.02808810125796668  0.6512600993405158  1.0000
  O   O10       1.0  0.3891319542480201  0.02808810125796668  0.8487399005070462  1.0000
  O   O11       1.0  0.11086804534507816  0.5280881014763879  0.6512600994738691  1.0000
  O   O12       1.0  0.8891319545071114  0.5280881014763879  0.8487399009760911  1.0000
  O   O13       1.0  0.3891319544700177  0.9719118991788757  0.348739900669756  1.0000
  O   O14       1.0  0.6108680455621731  0.9719118991788757  0.15126009950322572  1.0000
  O   O15       1.0  0.889131954465115  0.47191189896045443  0.3487399005364028  1.0000
  O   O16       1.0  0.11086804530308196  0.47191189896045443  0.15126009903418072  1.0000
  O   O17       1.0  0.4965163207929914  0.99283059595626  0.6365164016924436  1.0000
  O   O18       1.0  0.503483679277349  0.99283059595626  0.8634835981521062  1.0000
  O   O19       1.0  0.9965163207880888  0.49283059765438664  0.6365164015590904  1.0000
  O   O20       1.0  0.0034836792822516677  0.49283059765438664  0.8634835982854595  1.0000
  O   O21       1.0  0.5034836794993467  0.007169402564034467  0.3634835983148161  1.0000
  O   O22       1.0  0.4965163205328442  0.007169402564034467  0.13651640185816566  1.0000
  O   O23       1.0  0.0034836795042493592  0.5071694027824556  0.3634835984481694  1.0000
  O   O24       1.0  0.9965163205279415  0.5071694027824556  0.13651640172481233  1.0000
