data_image0
_chemical_formula_structural       H72C68N16O20
_chemical_formula_sum              "H72 C68 N16 O20"
_cell_length_a       6.496354119255122
_cell_length_b       10.681838820681588
_cell_length_c       23.193902071363837
_cell_angle_alpha    90.0
_cell_angle_beta     94.41749451606266
_cell_angle_gamma    90.0

_space_group_name_H-M_alt    "P 1"
_space_group_IT_number       1

loop_
  _space_group_symop_operation_xyz
  'x, y, z'

loop_
  _atom_site_type_symbol
  _atom_site_label
  _atom_site_symmetry_multiplicity
  _atom_site_fract_x
  _atom_site_fract_y
  _atom_site_fract_z
  _atom_site_occupancy
  H   H1        1.0  0.5790747563497428  0.07783976466581297  0.05011760639130829  1.0000
  H   H2        1.0  0.42092524337179693  0.5778397646339088  0.4498823938182553  1.0000
  H   H3        1.0  0.4209252436821  0.9221602352703789  0.9498823939825376  1.0000
  H   H4        1.0  0.5790747566543011  0.42216023530228297  0.5501176061243217  1.0000
  H   H5        1.0  0.8067739704180342  0.022279926143354247  0.019005731172652696  1.0000
  H   H6        1.0  0.19322602929776084  0.5222799261114501  0.48099426860564226  1.0000
  H   H7        1.0  0.1932260296080638  0.9777200737928377  0.9809942687699245  1.0000
  H   H8        1.0  0.8067739707283373  0.4777200738247417  0.519005731336935  1.0000
  H   H9        1.0  0.6254187030385551  0.11800552331490516  0.9770542442251479  1.0000
  H   H10       1.0  0.3745812972978459  0.6180055242191694  0.5229457558817114  1.0000
  H   H11       1.0  0.37458129698754294  0.8819944766212868  0.022945755717429222  1.0000
  H   H12       1.0  0.6254187027282522  0.38199447665319075  0.4770542440608656  1.0000
  H   H13       1.0  0.35375452627054554  0.46020295311723597  0.03149443150867353  1.0000
  H   H14       1.0  0.6462454734509943  0.9602029530853319  0.4685055687008901  1.0000
  H   H15       1.0  0.6462454737612972  0.5397970468189559  0.9685055688651725  1.0000
  H   H16       1.0  0.35375452657510387  0.039797046850859975  0.531494431241687  1.0000
  H   H17       1.0  0.24144658195096055  0.40845123796032007  0.9625086990273579  1.0000
  H   H18       1.0  0.7585534183796958  0.908451237928416  0.5374913006482328  1.0000
  H   H19       1.0  0.7585534180751375  0.5915487619758718  0.03749130091521935  1.0000
  H   H20       1.0  0.24144658164640226  0.09154876200777587  0.46250869929434435  1.0000
  H   H21       1.0  0.38188914954398456  0.30144935849111937  0.008449279422279724  1.0000
  H   H22       1.0  0.618110851721456  0.8014493584592153  0.4915507208189869  1.0000
  H   H23       1.0  0.6181108504821134  0.6985506414450725  0.9915507205202974  1.0000
  H   H24       1.0  0.3818891483046421  0.19855064147697654  0.5084492791235903  1.0000
  H   H25       1.0  0.6944896196032592  0.5644075847996466  0.21603621156209765  1.0000
  H   H26       1.0  0.30551038011253584  0.06440758483155062  0.2839637882161972  1.0000
  H   H27       1.0  0.3055103804228388  0.43559241513654534  0.7839637883804794  1.0000
  H   H28       1.0  0.6944896199135622  0.9355924151046413  0.71603621172638  1.0000
  H   H29       1.0  0.6781942408933046  0.397059159120449  0.21713831375426376  1.0000
  H   H30       1.0  0.32180575882249046  0.8970591590885449  0.2828616860240311  1.0000
  H   H31       1.0  0.32180575913279347  0.6029408408157428  0.7828616861883133  1.0000
  H   H32       1.0  0.6781942412036076  0.10294084084764693  0.7171383139185461  1.0000
  H   H33       1.0  0.5110086214383415  0.4850089527628188  0.16736439427521466  1.0000
  H   H34       1.0  0.4889913782774536  0.9850089527309146  0.33263560550308024  1.0000
  H   H35       1.0  0.4889913785877566  0.5149910471733731  0.8326356056673625  1.0000
  H   H36       1.0  0.5110086217486446  0.01499104720527718  0.6673643944394969  1.0000
  H   H37       1.0  0.0013060301950889885  0.6403992519298762  0.17040401774614636  1.0000
  H   H38       1.0  0.9986939695264506  0.14039925196178027  0.3295959824634173  1.0000
  H   H39       1.0  0.9986939698310091  0.3596007480063157  0.8295959821964308  1.0000
  H   H40       1.0  0.0013060304996472829  0.8596007479744117  0.6704040174791599  1.0000
  H   H41       1.0  0.019216435293088967  0.9223528537918283  0.11436667778759746  1.0000
  H   H42       1.0  0.9807835644284508  0.42235285382373233  0.38563332242196613  1.0000
  H   H43       1.0  0.9807835647330091  0.07764714708053203  0.8856333221549797  1.0000
  H   H44       1.0  0.019216435603391955  0.577647147048628  0.6143666779518797  1.0000
  H   H45       1.0  0.2959725951898163  0.08059464427914553  0.12062851308539901  1.0000
  H   H46       1.0  0.7040274045259788  0.5805946442472415  0.3793714866928959  1.0000
  H   H47       1.0  0.7040274048362818  0.9194053556570463  0.8793714868571781  1.0000
  H   H48       1.0  0.2959725955001193  0.41940535568895043  0.6206285132496813  1.0000
  H   H49       1.0  0.40774533316371503  0.26808866414043814  0.1606717688241034  1.0000
  H   H50       1.0  0.59225466655208  0.7680886641085342  0.3393282309541915  1.0000
  H   H51       1.0  0.592254666862383  0.7319113357957537  0.8393282311184738  1.0000
  H   H52       1.0  0.407745333474018  0.2319113358276578  0.6606717689883856  1.0000
  H   H53       1.0  0.9877686574472455  0.2805974243120763  0.25052405760819807  1.0000
  H   H54       1.0  0.01223134227429414  0.7805974242801723  0.2494759426013656  1.0000
  H   H55       1.0  0.012231342578852434  0.7194025756241156  0.7494759423343791  1.0000
  H   H56       1.0  0.9877686577575486  0.21940257565601967  0.7505240577724803  1.0000
  H   H57       1.0  0.7109060769834185  0.12179727683973651  0.24524175100274276  1.0000
  H   H58       1.0  0.28909392273237655  0.6217972768078325  0.2547582487755521  1.0000
  H   H59       1.0  0.28909392304267956  0.8782027230964554  0.7547582489398343  1.0000
  H   H60       1.0  0.7109060757498207  0.3782027231283594  0.745241751135322  1.0000
  H   H61       1.0  0.5597607022871565  0.9319981771981803  0.20793618271024256  1.0000
  H   H62       1.0  0.44023929742863865  0.4319981772300844  0.2920638170680524  1.0000
  H   H63       1.0  0.4402392977389416  0.06800182273801159  0.7920638172323347  1.0000
  H   H64       1.0  0.5597607025974594  0.5680018227061076  0.7079361828745248  1.0000
  H   H65       1.0  0.7258358073688059  0.8192973014211402  0.09830059379302898  1.0000
  H   H66       1.0  0.2741641923469891  0.3192973014530443  0.40169940598526593  1.0000
  H   H67       1.0  0.274164192657292  0.18070269851505166  0.9016994061495482  1.0000
  H   H68       1.0  0.725835807679109  0.6807026984831476  0.5983005939573113  1.0000
  H   H69       1.0  0.2953875258031866  0.621164853859555  0.09381899856794407  1.0000
  H   H70       1.0  0.7046124739126085  0.12116485389145906  0.4061810012103508  1.0000
  H   H71       1.0  0.7046124742229114  0.3788351460766369  0.9061810013746331  1.0000
  H   H72       1.0  0.2953875261134896  0.8788351460447328  0.5938189987322263  1.0000
  C   C1        1.0  0.6971825392830825  0.09983724786552733  0.020629430117015846  1.0000
  C   C2        1.0  0.3028174604327126  0.5998372478336232  0.47937056966127906  1.0000
  C   C3        1.0  0.3028174607430156  0.9001627520706645  0.9793705698255613  1.0000
  C   C4        1.0  0.6971825395933854  0.40016275210256863  0.5206294302812982  1.0000
  C   C5        1.0  0.9842822331807526  0.24295636393382725  0.015686417498847  1.0000
  C   C6        1.0  0.01571776653504253  0.7429563639019232  0.4843135822794479  1.0000
  C   C7        1.0  0.01571776684534551  0.7570436360023647  0.9843135824437301  1.0000
  C   C8        1.0  0.9842822334910555  0.2570436360342687  0.5156864176631293  1.0000
  C   C9        1.0  0.2787479038172813  0.3822041381204341  0.007684342476239647  1.0000
  C   C10       1.0  0.7212520974424146  0.88220413808853  0.49231565733375826  1.0000
  C   C11       1.0  0.7212520962088168  0.6177958618157579  0.9923156574663374  1.0000
  C   C12       1.0  0.2787479025836835  0.11779586184766189  0.5076843426088189  1.0000
  C   C13       1.0  0.020326589741307924  0.4181686163763873  0.07907073131135031  1.0000
  C   C14       1.0  0.9796734099802319  0.9181686163444832  0.42092926889821336  1.0000
  C   C15       1.0  0.9796734102847902  0.5818313835598046  0.9209292686312268  1.0000
  C   C16       1.0  0.020326590045866216  0.08183138359170868  0.5790707310443638  1.0000
  C   C17       1.0  0.8444252902246494  0.38402933697685676  0.10595643405287139  1.0000
  C   C18       1.0  0.15557470949114566  0.8840293369449527  0.3940435657254235  1.0000
  C   C19       1.0  0.15557470980144864  0.6159706629593351  0.8940435658897058  1.0000
  C   C20       1.0  0.8444252905349524  0.11597066299123916  0.6059564342171536  1.0000
  C   C21       1.0  0.7233489237992299  0.2779732375526086  0.08832798015428177  1.0000
  C   C22       1.0  0.27665107746046586  0.7779732375207046  0.41167201965571615  1.0000
  C   C23       1.0  0.276651076226868  0.7220267623835833  0.9116720197882953  1.0000
  C   C24       1.0  0.7233489225656321  0.2220267624154873  0.5883279802868611  1.0000
  C   C25       1.0  0.665889579620222  0.4805091357550077  0.18951631341998212  1.0000
  C   C26       1.0  0.33411042009557307  0.9805091357231037  0.31048368635831275  1.0000
  C   C27       1.0  0.334110420405876  0.5194908641811843  0.8104836865225951  1.0000
  C   C28       1.0  0.665889579930525  0.01949086421308829  0.6895163135842645  1.0000
  C   C29       1.0  0.9771842440913964  0.5582553481760456  0.14327229464853855  1.0000
  C   C30       1.0  0.022815755630143382  0.058255348207949635  0.3567277055610252  1.0000
  C   C31       1.0  0.022815755934701677  0.4417446517601463  0.8567277052940386  1.0000
  C   C32       1.0  0.9771842443959546  0.9417446517282423  0.643272294381552  1.0000
  C   C33       1.0  0.8409084397900018  0.010166699930889849  0.17874577577791192  1.0000
  C   C34       1.0  0.15909155993153795  0.5101666998989858  0.3212542244316518  1.0000
  C   C35       1.0  0.15909156023609625  0.9898333000053021  0.8212542241646653  1.0000
  C   C36       1.0  0.8409084401003049  0.4898333000372061  0.6787457759421942  1.0000
  C   C37       1.0  0.009886348207130559  0.000569128602486448  0.14416348690354633  1.0000
  C   C38       1.0  0.9901136515086645  0.5005691285705824  0.3558365128747486  1.0000
  C   C39       1.0  0.9901136518189676  0.9994308713337055  0.8558365130390309  1.0000
  C   C40       1.0  0.009886348517433544  0.49943087136560954  0.6441634870678286  1.0000
  C   C41       1.0  0.16588804845616537  0.08939230183395253  0.14730639250770985  1.0000
  C   C42       1.0  0.8341119512596296  0.5893923027382169  0.352693607270585  1.0000
  C   C43       1.0  0.8341119515699327  0.9106076981022394  0.8526936074348672  1.0000
  C   C44       1.0  0.16588804876646837  0.4106076981341434  0.6473063926719921  1.0000
  C   C45       1.0  0.15750172293869208  0.1919967015444198  0.1853277527718433  1.0000
  C   C46       1.0  0.8424982767828477  0.6919967015125158  0.3146722474377204  1.0000
  C   C47       1.0  0.842498277087406  0.8080032993279405  0.8146722471707338  1.0000
  C   C48       1.0  0.1575017216993496  0.30800329842367613  0.6853277524731538  1.0000
  C   C49       1.0  0.9924485535214919  0.2017035770871631  0.22084435521485676  1.0000
  C   C50       1.0  0.0075514477382039895  0.7017035779914275  0.27915564459514114  1.0000
  C   C51       1.0  0.00755144650460618  0.7982964228490288  0.7791556447277204  1.0000
  C   C52       1.0  0.992448552287894  0.29829642288093283  0.720844355347436  1.0000
  C   C53       1.0  0.83805762928151  0.1117008194965318  0.21755083790329763  1.0000
  C   C54       1.0  0.16194237197818587  0.6117008194646277  0.2824491619067003  1.0000
  C   C55       1.0  0.16194237074458806  0.88829918043966  0.7824491620392795  1.0000
  C   C56       1.0  0.8380576280479122  0.3882991804715642  0.7175508380358769  1.0000
  C   C57       1.0  0.6699079241830195  0.9231342604522469  0.17482827522307606  1.0000
  C   C58       1.0  0.33009207553277564  0.4231342604841511  0.32517172455521887  1.0000
  C   C59       1.0  0.33009207584307865  0.07686573948394489  0.825171724719501  1.0000
  C   C60       1.0  0.6699079244933224  0.5768657394520408  0.6748282753873583  1.0000
  C   C61       1.0  0.6286491141546161  0.8338740117248504  0.13401529046124855  1.0000
  C   C62       1.0  0.37135088556117907  0.3338740117567544  0.36598470931704635  1.0000
  C   C63       1.0  0.371350885871482  0.16612598821134153  0.8659847094813286  1.0000
  C   C64       1.0  0.628649114464919  0.6661259881794375  0.6340152906255309  1.0000
  C   C65       1.0  0.44542278638899824  0.7548172786869973  0.1357262568537792  1.0000
  C   C66       1.0  0.5545772133325415  0.2548172787189013  0.3642737433557844  1.0000
  C   C67       1.0  0.5545772136370998  0.24518272124919466  0.8642737430887979  1.0000
  C   C68       1.0  0.44542278669355656  0.7451827212172906  0.6357262565867928  1.0000
  N   N1        1.0  0.8050025752457217  0.21244821215671533  0.0426715804686933  1.0000
  N   N2        1.0  0.1949974244700733  0.7124482121248114  0.4573284193096016  1.0000
  N   N3        1.0  0.19499742478037632  0.7875517877794767  0.9573284194738839  1.0000
  N   N4        1.0  0.8050025755560247  0.2875517878113806  0.5426715806329756  1.0000
  N   N5        1.0  0.09145475212461678  0.34929367336792727  0.03517143954493277  1.0000
  N   N6        1.0  0.9085452491350791  0.8492936733360232  0.464828560265065  1.0000
  N   N7        1.0  0.9085452479014813  0.6507063265682647  0.9648285603976443  1.0000
  N   N8        1.0  0.09145475089101895  0.1507063266001687  0.535171439677512  1.0000
  N   N9        1.0  0.8212303987611268  0.4760025680368357  0.1474384892890026  1.0000
  N   N10       1.0  0.17876960249856902  0.9760025680049317  0.35256151052099527  1.0000
  N   N11       1.0  0.1787696012649712  0.5239974318993562  0.8525615106535746  1.0000
  N   N12       1.0  0.821230397527529  0.02399743193126028  0.6474384894215819  1.0000
  N   N13       1.0  0.1014344689862636  0.5263129292978109  0.10191841861506439  1.0000
  N   N14       1.0  0.8985655307295315  0.026312929329714924  0.39808158116323056  1.0000
  N   N15       1.0  0.8985655310398344  0.47368707063838106  0.8980815813275127  1.0000
  N   N16       1.0  0.10143446929656658  0.973687070606477  0.6019184187793466  1.0000
  O   O1        1.0  0.04466171311391426  0.17855020863142945  0.9761504559423947  1.0000
  O   O2        1.0  0.955338285678586  0.6785502085995254  0.5238495441327619  1.0000
  O   O3        1.0  0.9553382853682829  0.8214497913047624  0.023849543968479624  1.0000
  O   O4        1.0  0.04466171434751207  0.3214497913366665  0.4761504558098153  1.0000
  O   O5        1.0  0.5593018440832841  0.2425639333729126  0.10796898301589256  1.0000
  O   O6        1.0  0.4406981556382557  0.7425639333410086  0.39203101719367106  1.0000
  O   O7        1.0  0.4406981559428141  0.7574360665632792  0.8920310169266846  1.0000
  O   O8        1.0  0.5593018443878423  0.2574360665951833  0.6079689827489061  1.0000
  O   O9        1.0  0.30293580946259885  0.2827474024558707  0.18934759210614974  1.0000
  O   O10       1.0  0.6970641918028417  0.7827474024239666  0.3106524081351169  1.0000
  O   O11       1.0  0.6970641905634992  0.7172525974803212  0.8106524078364274  1.0000
  O   O12       1.0  0.30293580822900107  0.21725259751222528  0.689347592238729  1.0000
  O   O13       1.0  0.4222071985404795  0.6766986041771009  0.08962392317556662  1.0000
  O   O14       1.0  0.5777928011810602  0.17669860420900493  0.4103760770339971  1.0000
  O   O15       1.0  0.5777928014856185  0.323301395759091  0.9103760767670106  1.0000
  O   O16       1.0  0.4222071988450378  0.823301395727187  0.5896239229085801  1.0000
  O   O17       1.0  0.3222570803583715  0.7559876043406474  0.17390550883133013  1.0000
  O   O18       1.0  0.6777429193631683  0.25598760437255147  0.32609449137823354  1.0000
  O   O19       1.0  0.6777429196677266  0.2440123955955445  0.8260944911112469  1.0000
  O   O20       1.0  0.3222570806629298  0.7440123955636404  0.6739055085643436  1.0000
