data_image0
_chemical_formula_structural       H76C108N8F16
_chemical_formula_sum              "H76 C108 N8 F16"
_cell_length_a       19.074219061448
_cell_length_b       6.7442797048054235
_cell_length_c       17.20091087437634
_cell_angle_alpha    90.0
_cell_angle_beta     110.07491497798532
_cell_angle_gamma    90.0

_space_group_name_H-M_alt    "P 1"
_space_group_IT_number       1

loop_
  _space_group_symop_operation_xyz
  'x, y, z'

loop_
  _atom_site_type_symbol
  _atom_site_label
  _atom_site_symmetry_multiplicity
  _atom_site_fract_x
  _atom_site_fract_y
  _atom_site_fract_z
  _atom_site_occupancy
  H   H1        1.0  0.5593982984561484  0.526957819894057  0.520250636626731  1.0000
  H   H2        1.0  0.5593982988509898  0.4730421793934246  0.020250636602576425  1.0000
  H   H3        1.0  0.5758938836821814  0.22562909407742335  0.6054289187073782  1.0000
  H   H4        1.0  0.575893883518859  0.7743709052100581  0.10542891847524972  1.0000
  H   H5        1.0  0.794781438212434  0.12396730512293026  0.5918553221909566  1.0000
  H   H6        1.0  0.7947814380491116  0.8760326941645512  0.09185532195882821  1.0000
  H   H7        1.0  0.8852388802469905  0.3133123450521189  0.519778790457249  1.0000
  H   H8        1.0  0.8852388806418319  0.6866876557181005  0.019778790433094353  1.0000
  H   H9        1.0  0.8706541842322013  0.8440247141505866  0.3750420473024576  1.0000
  H   H10       1.0  0.8706541843955238  0.15597528513689501  0.8750420475345861  1.0000
  H   H11       1.0  0.7453618693339047  0.9200556132893989  0.3789681971333708  1.0000
  H   H12       1.0  0.7453618689390634  0.07994438599808269  0.8789681971575254  1.0000
  H   H13       1.0  0.6303961536930711  0.7533313196337221  0.4260710202503647  1.0000
  H   H14       1.0  0.6303961538563935  0.24666867965375938  0.9260710204824932  1.0000
  H   H15       1.0  0.7237918926502956  0.5270428311962412  0.8110295066816923  1.0000
  H   H16       1.0  0.7237918924869734  0.4729571680912404  0.31102950644956384  1.0000
  H   H17       1.0  0.8290496496675374  0.7618613573127658  0.8251688796868112  1.0000
  H   H18       1.0  0.829049649504215  0.23813864345745372  0.3251688794546827  1.0000
  H   H19       1.0  0.810718283048994  0.05016894091134995  0.7309805076446612  1.0000
  H   H20       1.0  0.8107182828856716  0.9498310598588696  0.2309805074125327  1.0000
  H   H21       1.0  0.15586447968399358  0.46529072597094107  0.41286958719270256  1.0000
  H   H22       1.0  0.15586447928915223  0.5347092747992784  0.9128695872168572  1.0000
  H   H23       1.0  0.11565393581992484  0.802155609908246  0.4421039308692279  1.0000
  H   H24       1.0  0.1156539354250835  0.19784439086197358  0.9421039308933823  1.0000
  H   H25       1.0  0.9931916816576135  0.8485496658631105  0.45890377750728045  1.0000
  H   H26       1.0  0.9931916812627721  0.151450333424371  0.9589037775314351  1.0000
  H   H27       1.0  0.5076497792446523  0.912487200911183  0.45035251608011684  1.0000
  H   H28       1.0  0.5076497788455091  0.08751279837629865  0.9503525155212869  1.0000
  H   H29       1.0  0.47874753109278273  0.7149590143131695  0.3780802568198937  1.0000
  H   H30       1.0  0.47874753125180336  0.28504098497431196  0.8780802564690376  1.0000
  H   H31       1.0  0.383415182060465  0.9097239970086637  0.2857306450618224  1.0000
  H   H32       1.0  0.3834151822237874  0.09027600227881794  0.7857306452939509  1.0000
  H   H33       1.0  0.40117640439152696  0.08813846489439893  0.36651884754929837  1.0000
  H   H34       1.0  0.4011764045548494  0.9118615358758206  0.866518847781427  1.0000
  H   H35       1.0  0.5151152882652786  0.716847699325881  0.2588935741524628  1.0000
  H   H36       1.0  0.5151152878661355  0.2831522999616005  0.7588935735936327  1.0000
  H   H37       1.0  0.5901504450221988  0.8691687706580846  0.2556334157091991  1.0000
  H   H38       1.0  0.5901504451855212  0.13083122862939692  0.7556334159413276  1.0000
  H   H39       1.0  0.5065499481929941  0.12959324171820003  0.19102550213646005  1.0000
  H   H40       1.0  0.5065499483520148  0.8704067590520195  0.6910255017856038  1.0000
  H   H41       1.0  0.43372001173108177  0.9563071331997899  0.1769214854651793  1.0000
  H   H42       1.0  0.4337200118944042  0.043692867570429686  0.6769214856973078  1.0000
  H   H43       1.0  0.6298704306772158  0.13651398226321967  0.353853736918245  1.0000
  H   H44       1.0  0.6298704308405382  0.8634860185069999  0.8538537371503736  1.0000
  H   H45       1.0  0.6071224189953551  0.1321704865480097  0.445598050339159  1.0000
  H   H46       1.0  0.6071224191586775  0.8678295142222099  0.9455980505712874  1.0000
  H   H47       1.0  0.4982582998175495  0.32192357005196875  0.3848251662123356  1.0000
  H   H48       1.0  0.4982582994227082  0.6780764292355128  0.8848251662364903  1.0000
  H   H49       1.0  0.5333199525079345  0.3732061198776478  0.3035235048508881  1.0000
  H   H50       1.0  0.5333199526712569  0.6267938808925717  0.8035235050830165  1.0000
  H   H51       1.0  0.44942270564474623  0.4864965338940759  0.622949307809493  1.0000
  H   H52       1.0  0.4494227054814238  0.5135034668761437  0.12294930757736452  1.0000
  H   H53       1.0  0.4302669287699984  0.1877630637260965  0.5353793579369308  1.0000
  H   H54       1.0  0.4302669291691415  0.812236937044123  0.035379358495760994  1.0000
  H   H55       1.0  0.2062559821013296  0.11542730196159019  0.5375886000386347  1.0000
  H   H56       1.0  0.2062559819380072  0.8845726988086293  0.03758859980650613  1.0000
  H   H57       1.0  0.11627305477730013  0.31408153616326223  0.6076749131489225  1.0000
  H   H58       1.0  0.11627305517214144  0.6859184631242193  0.10767491312476794  1.0000
  H   H59       1.0  0.1331794954329094  0.8503362791898701  0.7496937723250846  1.0000
  H   H60       1.0  0.13317949527388875  0.1496637200976114  0.24969377267594076  1.0000
  H   H61       1.0  0.2611166978895527  0.9115705099863396  0.7511633591991176  1.0000
  H   H62       1.0  0.2611166977262303  0.08842948930114194  0.25116335896698905  1.0000
  H   H63       1.0  0.3783546701554087  0.7214561321549428  0.7122056857528904  1.0000
  H   H64       1.0  0.3783546699920864  0.2785438671325388  0.21220568552076194  1.0000
  H   H65       1.0  0.27052703065747585  0.5194716653735044  0.3154455517995791  1.0000
  H   H66       1.0  0.27052703081649654  0.4805283353967152  0.8154455514487229  1.0000
  H   H67       1.0  0.17167272803300163  0.775420447979608  0.29968740637847247  1.0000
  H   H68       1.0  0.17167272819632404  0.2245795527906116  0.7996874066106009  1.0000
  H   H69       1.0  0.1946389606750279  0.05595500876559323  0.39841513973753795  1.0000
  H   H70       1.0  0.1946389608383503  0.9440449920046264  0.8984151399696664  1.0000
  H   H71       1.0  0.8461013327192856  0.48439240556293794  0.7131207010431623  1.0000
  H   H72       1.0  0.8461013325559632  0.5156075952072817  0.21312070081103376  1.0000
  H   H73       1.0  0.8879744194911132  0.818377561664198  0.6824856927259724  1.0000
  H   H74       1.0  0.8879744193277909  0.1816224376232835  0.18248569249384397  1.0000
  H   H75       1.0  0.0105061656820477  0.8579901224851326  0.6652791253052603  1.0000
  H   H76       1.0  0.01050616608119079  0.1420098782850869  0.1652791258640904  1.0000
  C   C1        1.0  0.6105147173446832  0.44031183610076474  0.5346416831358327  1.0000
  C   C2        1.0  0.6105147171856625  0.5596881646694548  0.03464168348668892  1.0000
  C   C3        1.0  0.6201163749620225  0.2696075221649573  0.5825491584141749  1.0000
  C   C4        1.0  0.6201163753568638  0.7303924771225242  0.08254915839002025  1.0000
  C   C5        1.0  0.6863097849171577  0.15501933130903015  0.6045976565461082  1.0000
  C   C6        1.0  0.6863097847538354  0.8449806679784514  0.10459765631397971  1.0000
  C   C7        1.0  0.7441559560553105  0.21325759205615494  0.5766641065679989  1.0000
  C   C8        1.0  0.7441559558919882  0.7867424072313266  0.07666410633587048  1.0000
  C   C9        1.0  0.8545673655895957  0.44369853579290913  0.48865078687921687  1.0000
  C   C10       1.0  0.8545673657486162  0.5563014649773104  0.9886507865283607  1.0000
  C   C11       1.0  0.8863138701508595  0.5742950455094958  0.4466685775172171  1.0000
  C   C12       1.0  0.8863138703141819  0.4257049552607237  0.9466685777493458  1.0000
  C   C13       1.0  0.8457037330834465  0.7449589489030469  0.4081895254110693  1.0000
  C   C14       1.0  0.8457037332424672  0.2550410518671727  0.9081895250602131  1.0000
  C   C15       1.0  0.774884400160654  0.7878393323773476  0.40977710804091677  1.0000
  C   C16       1.0  0.7748844003239764  0.21216066691013397  0.9097771082730453  1.0000
  C   C17       1.0  0.6687600618808831  0.4977505496410681  0.5074504464725014  1.0000
  C   C18       1.0  0.6687600622757245  0.5022494496464135  0.0074504464483468305  1.0000
  C   C19       1.0  0.7359442297462255  0.3838001318592522  0.5284511115398236  1.0000
  C   C20       1.0  0.7359442295829032  0.6161998674282294  0.028451111307695173  1.0000
  C   C21       1.0  0.7836231621591334  0.4836789742981326  0.4913993740839376  1.0000
  C   C22       1.0  0.7836231623224558  0.516321024989349  0.9913993743160661  1.0000
  C   C23       1.0  0.7434856113357806  0.6549647335730481  0.451086742768403  1.0000
  C   C24       1.0  0.7434856114991031  0.3450352671971714  0.9510867430005315  1.0000
  C   C25       1.0  0.6967218001184579  0.9814789169084399  0.6596800229850255  1.0000
  C   C26       1.0  0.696721800517601  0.018521082379041657  0.15968002354385566  1.0000
  C   C27       1.0  0.6394554700152345  0.8459619662474547  0.6530884058051722  1.0000
  C   C28       1.0  0.6394554704143776  0.1540380330400268  0.1530884063640024  1.0000
  C   C29       1.0  0.6492910557221696  0.6870101349294017  0.707487027762994  1.0000
  C   C30       1.0  0.6492910555588471  0.31298986435807974  0.2074870275308656  1.0000
  C   C31       1.0  0.7171767164195451  0.6526511269785763  0.7693741913466075  1.0000
  C   C32       1.0  0.7171767168143864  0.3473488723089052  0.2693741913224528  1.0000
  C   C33       1.0  0.7756186901870904  0.7841449571303888  0.7762631866505871  1.0000
  C   C34       1.0  0.7756186905819318  0.21585504363983082  0.27626318662643257  1.0000
  C   C35       1.0  0.7653998700770663  0.9453158497351996  0.7229302896718389  1.0000
  C   C36       1.0  0.7653998699180456  0.054684149552281985  0.22293029002269515  1.0000
  C   C37       1.0  0.9611724865494234  0.5414613079285618  0.44125723041577253  1.0000
  C   C38       1.0  0.9611724861502804  0.45853869135891967  0.9412572298569423  1.0000
  C   C39       1.0  0.9863357026228436  0.3546962039987064  0.42677602026364886  1.0000
  C   C40       1.0  0.986335702786166  0.6453037952887751  0.9267760204957773  1.0000
  C   C41       1.0  0.05471697777717427  0.3299626983759866  0.415552786510959  1.0000
  C   C42       1.0  0.05471697738233292  0.6700373023942329  0.9155527865351135  1.0000
  C   C43       1.0  0.10218744284764064  0.4885139680153662  0.4206984575030756  1.0000
  C   C44       1.0  0.1021874424527993  0.5114860327548534  0.9206984575272301  1.0000
  C   C45       1.0  0.07908232529018677  0.6755529173491547  0.4369626155834835  1.0000
  C   C46       1.0  0.07908232545350916  0.32444708193832683  0.9369626158156121  1.0000
  C   C47       1.0  0.010166845420173433  0.7012550853473904  0.44660049112550754  1.0000
  C   C48       1.0  0.010166845579194082  0.2987449139400912  0.9466004907746514  1.0000
  C   C49       1.0  0.4927416625573623  0.8732452652881058  0.38480223219123116  1.0000
  C   C50       1.0  0.4927416627163829  0.12675473399937576  0.884802231840375  1.0000
  C   C51       1.0  0.4270201029401156  0.0017690221227774849  0.32927612013781593  1.0000
  C   C52       1.0  0.42702010309913624  0.998230978647442  0.8292761197869597  1.0000
  C   C53       1.0  0.5390530684297872  0.8667001319407228  0.2716656197741382  1.0000
  C   C54       1.0  0.5390530685888079  0.13329986734675872  0.771665619423282  1.0000
  C   C55       1.0  0.48203338433469034  0.025445111637010763  0.2233022833469509  1.0000
  C   C56       1.0  0.48203338449801275  0.9745548891332089  0.7233022835790793  1.0000
  C   C57       1.0  0.5844434542357686  0.11207132015320329  0.3784210983109918  1.0000
  C   C58       1.0  0.584443454399091  0.8879286806170162  0.8784210985431202  1.0000
  C   C59       1.0  0.5178614980461805  0.25394846521262604  0.33794477779166965  1.0000
  C   C60       1.0  0.517861498209503  0.7460515355575936  0.8379447780237982  1.0000
  C   C61       1.0  0.3969157377678508  0.40532321754868056  0.6062295813497216  1.0000
  C   C62       1.0  0.3969157376045283  0.5946767832215389  0.1062295811175931  1.0000
  C   C63       1.0  0.38560200190066324  0.2370662264883226  0.556646745237416  1.0000
  C   C64       1.0  0.3856020022955046  0.762933772799159  0.05664674521326143  1.0000
  C   C65       1.0  0.317291294227755  0.1316949027732569  0.5306989400422221  1.0000
  C   C66       1.0  0.3172912940644325  0.8683050979969628  0.03069893981009348  1.0000
  C   C67       1.0  0.2588715595554804  0.19680255981291528  0.5563743802823437  1.0000
  C   C68       1.0  0.25887155939215795  0.8031974409573043  0.05637438005021513  1.0000
  C   C69       1.0  0.14796587597132901  0.44261210991487515  0.639313098246165  1.0000
  C   C70       1.0  0.1479658758080066  0.5573878893726064  0.1393130980140364  1.0000
  C   C71       1.0  0.11634654848884714  0.5781206504857569  0.6795461907041562  1.0000
  C   C72       1.0  0.11634654832552473  0.4218793488017246  0.1795461904720277  1.0000
  C   C73       1.0  0.15817533761229285  0.7468647699191654  0.7182009271338411  1.0000
  C   C74       1.0  0.15817533801143593  0.2531352293683161  0.2182009276926711  1.0000
  C   C75       1.0  0.23044765400281741  0.7817186238944851  0.7194641401282538  1.0000
  C   C76       1.0  0.2304476538394951  0.21828137539299644  0.2194641398961253  1.0000
  C   C77       1.0  0.3378287284897736  0.4708035815503899  0.6303336361074179  1.0000
  C   C78       1.0  0.3378287283264512  0.5291964177370916  0.13033363587528943  1.0000
  C   C79       1.0  0.26855038533986114  0.36586179073235636  0.6057360947419883  1.0000
  C   C80       1.0  0.26855038518084046  0.6341382100378633  0.10573609509284436  1.0000
  C   C81       1.0  0.22033192443751531  0.4743281921893975  0.6394945842312714  1.0000
  C   C82       1.0  0.22033192483235667  0.5256718085808221  0.1394945842071168  1.0000
  C   C83       1.0  0.26209805129337294  0.6424664248300195  0.6809481806588995  1.0000
  C   C84       1.0  0.2620980511343523  0.3575335759402001  0.18094818100975563  1.0000
  C   C85       1.0  0.3048940738809569  0.9622294305759709  0.473148818277549  1.0000
  C   C86       1.0  0.3048940734818138  0.037770570194248676  0.9731488177187189  1.0000
  C   C87       1.0  0.35876049247949277  0.8158584179240749  0.48008395022432476  1.0000
  C   C88       1.0  0.3587604926428152  0.18414158284614465  0.9800839504564534  1.0000
  C   C89       1.0  0.34603015794110126  0.6601031651798077  0.4236992329301492  1.0000
  C   C90       1.0  0.34603015754195815  0.33989683410767374  0.9236992323713191  1.0000
  C   C91       1.0  0.2790511414770709  0.6421817613694231  0.35874914541787134  1.0000
  C   C92       1.0  0.27905114164039324  0.35781823791805845  0.8587491456499998  1.0000
  C   C93       1.0  0.22427903771359886  0.7857089328938027  0.35085657722346814  1.0000
  C   C94       1.0  0.22427903731875753  0.21429106639367887  0.8508565772476228  1.0000
  C   C95       1.0  0.2371185383139165  0.9423322872376859  0.40671866819028274  1.0000
  C   C96       1.0  0.23711853791477344  0.05766771353253368  0.9067186676314526  1.0000
  C   C97       1.0  0.041006160314472254  0.5500714994600051  0.6841574160938095  1.0000
  C   C98       1.0  0.04100616071361534  0.4499285013102145  0.18415741665263957  1.0000
  C   C99       1.0  0.014982933097910637  0.3652010085295031  0.6995589173588057  1.0000
  C   C100      1.0  0.014982932934588243  0.6347989922407166  0.19955891712667723  1.0000
  C   C101      1.0  0.9466055667599071  0.3443721437509696  0.7111117534072673  1.0000
  C   C102      1.0  0.9466055665965849  0.65562785701925  0.21111175317513892  1.0000
  C   C103      1.0  0.8998943359727275  0.5049414391241132  0.7052895639900629  1.0000
  C   C104      1.0  0.899894335809405  0.4950585616461064  0.20528956375793442  1.0000
  C   C105      1.0  0.9238417742856961  0.6900873264025271  0.6880516848460487  1.0000
  C   C106      1.0  0.9238417746805375  0.30991267288495433  0.18805168482189413  1.0000
  C   C107      1.0  0.9927974804909787  0.7120002550574137  0.6781045030056976  1.0000
  C   C108      1.0  0.9927974803276564  0.28799974571280595  0.17810450277356915  1.0000
  N   N1        1.0  0.6745333885187187  0.6596015593526371  0.4608505401999772  1.0000
  N   N2        1.0  0.6745333881238773  0.3403984414175826  0.9608505402241319  1.0000
  N   N3        1.0  0.5595344177322603  0.9040343308501473  0.3612989993428944  1.0000
  N   N4        1.0  0.5595344178955828  0.09596566992007231  0.8612989995750229  1.0000
  N   N5        1.0  0.45495947750948146  0.1408888082329933  0.28035260914129945  1.0000
  N   N6        1.0  0.45495947711464013  0.8591111925372262  0.780352609165454  1.0000
  N   N7        1.0  0.3326692675359467  0.6363255881784063  0.6753797939068796  1.0000
  N   N8        1.0  0.3326692673769261  0.3636744125918132  0.17537979425773584  1.0000
  F   F1        1.0  0.571967298725566  0.8645534816483744  0.5915468878680527  1.0000
  F   F2        1.0  0.5719672991204073  0.13544651763910712  0.09154688784389801  1.0000
  F   F3        1.0  0.5899151115295109  0.5651953991890337  0.6991758902544493  1.0000
  F   F4        1.0  0.5899151119243523  0.4348046000984478  0.19917589023029464  1.0000
  F   F5        1.0  0.942987695212425  0.18949569204393954  0.41976088747634593  1.0000
  F   F6        1.0  0.9429876953757476  0.8105043087262801  0.9197608877084744  1.0000
  F   F7        1.0  0.07391561130690215  0.14399656190238308  0.398657368783202  1.0000
  F   F8        1.0  0.07391561146592279  0.8560034373850985  0.8986573684323459  1.0000
  F   F9        1.0  0.42563318079129014  0.8213273636995176  0.5429813093114806  1.0000
  F   F10       1.0  0.42563318063226946  0.17867263558796387  0.042981309662336625  1.0000
  F   F11       1.0  0.40168157520201125  0.5251700203768737  0.43267661497476567  1.0000
  F   F12       1.0  0.40168157536533367  0.47482997891060785  0.9326766152068942  1.0000
  F   F13       1.0  0.057427590638871616  0.1980331938262238  0.7073442049231793  1.0000
  F   F14       1.0  0.05742759103801471  0.8019668069439957  0.20734420548200944  1.0000
  F   F15       1.0  0.9267071783095645  0.160002741172066  0.7290602929700263  1.0000
  F   F16       1.0  0.9267071787044059  0.8399972595981535  0.22906029294587166  1.0000
