data_image0
_chemical_formula_structural       H20C18N2O10S2Cl2
_chemical_formula_sum              "H20 C18 N2 O10 S2 Cl2"
_cell_length_a       5.496856152574065
_cell_length_b       10.419274387006938
_cell_length_c       10.574092539414902
_cell_angle_alpha    73.72563618234105
_cell_angle_beta     80.77458143015292
_cell_angle_gamma    85.26553825226709

_space_group_name_H-M_alt    "P 1"
_space_group_IT_number       1

loop_
  _space_group_symop_operation_xyz
  'x, y, z'

loop_
  _atom_site_type_symbol
  _atom_site_label
  _atom_site_symmetry_multiplicity
  _atom_site_fract_x
  _atom_site_fract_y
  _atom_site_fract_z
  _atom_site_occupancy
  H   H1        1.0  0.8318581956665396  0.5802977660832417  0.9611523225431599  1.0000
  H   H2        1.0  0.16814180532560316  0.41970223400574225  0.0388476774031875  1.0000
  H   H3        1.0  0.6876041641291634  0.6273169482689533  0.10744162573517249  1.0000
  H   H4        1.0  0.31239583504303997  0.37268305182150835  0.8925583742127716  1.0000
  H   H5        1.0  0.8239468467057308  0.7539546221410333  0.9635749372497181  1.0000
  H   H6        1.0  0.17605315220452203  0.24604537768017337  0.03642506369369393  1.0000
  H   H7        1.0  0.47093503467601994  0.903080127897241  0.9602370928777338  1.0000
  H   H8        1.0  0.5290649644961833  0.09691987219322071  0.03976290707021023  1.0000
  H   H9        1.0  0.28349232465539614  0.7945650974230664  0.09979312260866571  1.0000
  H   H10       1.0  0.7165076763367466  0.20543490266591757  0.9002068773376818  1.0000
  H   H11       1.0  0.16080236722419106  0.8694936548428751  0.9472851462235341  1.0000
  H   H12       1.0  0.8391976319480123  0.13050634524758659  0.0527148537244099  1.0000
  H   H13       1.0  0.6607951444244253  0.14545623343105224  0.4665848128768411  1.0000
  H   H14       1.0  0.3392048547477782  0.8545437666594095  0.5334151870711029  1.0000
  H   H15       1.0  0.3576404448567853  0.37213544576972846  0.5467781623732433  1.0000
  H   H16       1.0  0.6423595561353574  0.6278645543192556  0.45322183757310414  1.0000
  H   H17       1.0  0.8094897174425367  0.35390371759099126  0.30188334305795855  1.0000
  H   H18       1.0  0.19051028172966658  0.6460962824994703  0.6981166568899856  1.0000
  H   H19       1.0  0.6224001013980698  0.8612537161302366  0.7066337102056676  1.0000
  H   H20       1.0  0.3775998995940729  0.1387462839587474  0.29336628974067985  1.0000
  C   C1        1.0  0.7279291019041971  0.6596709305916308  0.9984591821801214  1.0000
  C   C2        1.0  0.2720708992343632  0.3403290685336517  0.0015408177686472083  1.0000
  C   C3        1.0  0.3277693470537692  0.8288543530084085  0.991243107826798  1.0000
  C   C4        1.0  0.6722306539383734  0.1711456470805755  0.008756892119549407  1.0000
  C   C5        1.0  0.0935237202535552  0.3729645543316728  0.41586887303539855  1.0000
  C   C6        1.0  0.9064762789186483  0.627035445758789  0.5841311269125454  1.0000
  C   C7        1.0  0.8109763041564588  0.1967792279361807  0.4845206612483188  1.0000
  C   C8        1.0  0.18902369683568376  0.8032207721528033  0.5154793386980288  1.0000
  C   C9        1.0  0.2033052177714001  0.3227416074568903  0.5306022906127056  1.0000
  C   C10       1.0  0.796694781547221  0.6772583916698699  0.4693977093376596  1.0000
  C   C11       1.0  0.8948949221313408  0.31309712681537044  0.39139429083057514  1.0000
  C   C12       1.0  0.10510507886080171  0.6869028732736137  0.6086057091157724  1.0000
  C   C13       1.0  0.8148297078278127  0.014548342043267734  0.6964130775453288  1.0000
  C   C14       1.0  0.18517029149080824  0.9854516570834924  0.30358692240503654  1.0000
  C   C15       1.0  0.9160646225468034  0.14119693897362712  0.6016973620337371  1.0000
  C   C16       1.0  0.0839353785917569  0.8588030601516553  0.3983026379150316  1.0000
  C   C17       1.0  0.11187414669052505  0.20759775875559375  0.6242000648877368  1.0000
  C   C18       1.0  0.8881258526280957  0.7924022403711665  0.3757999350626286  1.0000
  N   N1        1.0  0.1952893428483691  0.4922119865207602  0.31682223215373617  1.0000
  N   N2        1.0  0.8047106563238343  0.5077880135697016  0.6831777677942078  1.0000
  O   O1        1.0  0.5026131708373525  0.7332437459215203  0.7822758516792263  1.0000
  O   O2        1.0  0.4973868283348508  0.26675625416894144  0.2177241482687176  1.0000
  O   O3        1.0  0.37867298185572557  0.5407521019225405  0.33798897439347203  1.0000
  O   O4        1.0  0.6213270173164777  0.4592478981679213  0.662011025554472  1.0000
  O   O5        1.0  0.09318785709365  0.5386810104178599  0.21593075122749208  1.0000
  O   O6        1.0  0.9068121420785533  0.46131898967260193  0.7840692487204519  1.0000
  O   O7        1.0  0.6940522907904262  0.947469020834723  0.6380785321658731  1.0000
  O   O8        1.0  0.3059477102017165  0.05253097925426099  0.3619214677804744  1.0000
  O   O9        1.0  0.8393958150933546  0.9782027401627145  0.8153836042265787  1.0000
  O   O10       1.0  0.16060418407884874  0.021797259927747357  0.18461639572136537  1.0000
  S   S1        1.0  0.4394865269034501  0.6853120638683312  0.9339752581192203  1.0000
  S   S2        1.0  0.5605134722687533  0.3146879362221304  0.06602474182872374  1.0000
  Cl  Cl1       1.0  0.2563784781919251  0.15113543343676172  0.7636670569575014  1.0000
  Cl  Cl2       1.0  0.7436215228002176  0.8488645666522222  0.2363329429888461  1.0000
