data_image0
_chemical_formula_structural       H24C30N2O10Cl2
_chemical_formula_sum              "H24 C30 N2 O10 Cl2"
_cell_length_a       5.790927744916122
_cell_length_b       10.36789148851976
_cell_length_c       12.06650823408648
_cell_angle_alpha    83.33186532829708
_cell_angle_beta     77.7548173732154
_cell_angle_gamma    80.61398381553057

_space_group_name_H-M_alt    "P 1"
_space_group_IT_number       1

loop_
  _space_group_symop_operation_xyz
  'x, y, z'

loop_
  _atom_site_type_symbol
  _atom_site_label
  _atom_site_symmetry_multiplicity
  _atom_site_fract_x
  _atom_site_fract_y
  _atom_site_fract_z
  _atom_site_occupancy
  H   H1        1.0  0.39977687939752493  0.18473816632695075  0.2819025373220271  1.0000
  H   H2        1.0  0.6002231214320398  0.8152618340985915  0.7180974623780791  1.0000
  H   H3        1.0  0.8957005405437274  0.9204276169261785  0.28518839621490355  1.0000
  H   H4        1.0  0.10429945883673629  0.07957238252553442  0.714811603485138  1.0000
  H   H5        1.0  0.6391023390233369  0.3323453973819346  0.18739466372761165  1.0000
  H   H6        1.0  0.3608976597227893  0.6676546029666698  0.8126053368217021  1.0000
  H   H7        1.0  0.29943980761879513  0.49440894790660395  0.11359981056718611  1.0000
  H   H8        1.0  0.7005601928544773  0.5055910524380588  0.886400189983998  1.0000
  H   H9        1.0  0.6151889667237557  0.03660139218136387  0.43720586141002277  1.0000
  H   H10       1.0  0.3848110337495169  0.9633986081632989  0.5627941391411614  1.0000
  H   H11       1.0  0.24955269592414697  0.15027008220027  0.9573871066912532  1.0000
  H   H12       1.0  0.7504473049054178  0.8497299182252722  0.04261289300885306  1.0000
  H   H13       1.0  0.8544464044603781  0.702757734554906  0.3082617425089979  1.0000
  H   H14       1.0  0.1455535949200856  0.2972422648968069  0.6917382571910436  1.0000
  H   H15       1.0  0.034804648065901354  0.686428289370284  0.16888904251492187  1.0000
  H   H16       1.0  0.9651953524073713  0.31357171097437875  0.8311109580362623  1.0000
  H   H17       1.0  0.12875998276864545  0.5914980275119237  0.2870279007291983  1.0000
  H   H18       1.0  0.8712400177046271  0.40850197283273904  0.7129720998219858  1.0000
  H   H19       1.0  0.8247582946969896  0.15593906999192725  0.05864280225436478  1.0000
  H   H20       1.0  0.17524170432718195  0.8440609293789061  0.9413571982967548  1.0000
  H   H21       1.0  0.48398942428528224  0.318603508407269  0.9852861477294218  1.0000
  H   H22       1.0  0.5160105765442826  0.6813964920182731  0.014713851970684269  1.0000
  H   H23       1.0  0.523326374690905  0.3976735335220059  0.6159345724399516  1.0000
  H   H24       1.0  0.4766736246895585  0.6023264659297071  0.38406542726008996  1.0000
  C   C1        1.0  0.06323944061418993  0.2221133373399603  0.39908345821910335  1.0000
  C   C2        1.0  0.936760560137128  0.7778866620269315  0.6009165423338865  1.0000
  C   C3        1.0  0.22649192512094318  0.15379783665535113  0.31593391018386785  1.0000
  C   C4        1.0  0.773508075986667  0.84620216279242  0.6840660895180439  1.0000
  C   C5        1.0  0.8402351564655144  0.17978695859580376  0.4453105063026269  1.0000
  C   C6        1.0  0.15976484436405036  0.8202130418297384  0.5546894933974792  1.0000
  C   C7        1.0  0.9552845913576805  0.42496179921903  0.1581729762647953  1.0000
  C   C8        1.0  0.04471540974992958  0.5750382002287411  0.8418270234371166  1.0000
  C   C9        1.0  0.16404722483703363  0.04614282148424041  0.2766599570203861  1.0000
  C   C10       1.0  0.8359527762705765  0.9538571779635309  0.7233400426815259  1.0000
  C   C11       1.0  0.6545066392610122  0.23806116602340668  0.5400760393489308  1.0000
  C   C12       1.0  0.3454933598414062  0.7619388344060771  0.4599239603493051  1.0000
  C   C13       1.0  0.9436872454572659  0.0033380486288491886  0.31798482593785843  1.0000
  C   C14       1.0  0.05631275392319766  0.9966619508228637  0.6820151737621831  1.0000
  C   C15       1.0  0.8238343247547706  0.32829572044067945  0.14222512329018147  1.0000
  C   C16       1.0  0.17616567571850203  0.6717042799039833  0.8577748772610028  1.0000
  C   C17       1.0  0.8368612393771773  0.5279011066826914  0.23518249540686198  1.0000
  C   C18       1.0  0.16313875972524097  0.4720988937467925  0.7648175042913739  1.0000
  C   C19       1.0  0.19436339886373052  0.4210632197787991  0.10121802412648781  1.0000
  C   C20       1.0  0.8056366018875875  0.5789367795880925  0.898781976426502  1.0000
  C   C21       1.0  0.7864656810382324  0.07003648025153869  0.40289463298364153  1.0000
  C   C22       1.0  0.21353431806418596  0.9299635201779451  0.5971053667145944  1.0000
  C   C23       1.0  0.1660613472118775  0.2273801772939278  0.013398969835202243  1.0000
  C   C24       1.0  0.8339386515342488  0.7726198230546766  0.9866010307141116  1.0000
  C   C25       1.0  0.9707918559899235  0.6338805642470028  0.2513282894897501  1.0000
  C   C26       1.0  0.029208143112494867  0.3661194361824811  0.7486717102084858  1.0000
  C   C27       1.0  0.9281390693342738  0.23038682461535526  0.07025797066706826  1.0000
  C   C28       1.0  0.07186093004618978  0.7696131748363576  0.9297420290329733  1.0000
  C   C29       1.0  0.29845961113491054  0.32257816763340347  0.029222680880936186  1.0000
  C   C30       1.0  0.701540387889261  0.67742183173743  0.9707773196701833  1.0000
  N   N1        1.0  0.3375965540856678  0.975924235197943  0.18873010201007134  1.0000
  N   N2        1.0  0.6624034467438968  0.024075765227599355  0.8112698976900349  1.0000
  O   O1        1.0  0.651152745908956  0.3646148073576356  0.5479359912624653  1.0000
  O   O2        1.0  0.34884725519865417  0.6353851920901356  0.45206400843944655  1.0000
  O   O3        1.0  0.5166630124128252  0.16962123505914262  0.6032352024105921  1.0000
  O   O4        1.0  0.48333698806044745  0.8303787652855201  0.396764798140592  1.0000
  O   O5        1.0  0.5376778601424489  0.011610490621786906  0.15847907420680343  1.0000
  O   O6        1.0  0.4623221409651613  0.9883895088259842  0.8415209254951085  1.0000
  O   O7        1.0  0.625557133532063  0.5240831274063829  0.284762572518466  1.0000
  O   O8        1.0  0.37444286729750187  0.47591687301915947  0.7152374271816401  1.0000
  O   O9        1.0  0.27496987889735247  0.8849194489566128  0.1491677201706977  1.0000
  O   O10       1.0  0.7250301222102579  0.11508055049115841  0.850832279531214  1.0000
  Cl  Cl1       1.0  0.15335362514851958  0.3559841029345941  0.44070839106936455  1.0000
  Cl  Cl2       1.0  0.8466463759590904  0.6440158965131771  0.5592916086325472  1.0000
