data_image0
_chemical_formula_structural       H10C18N2F4Br2
_chemical_formula_sum              "H10 C18 N2 F4 Br2"
_cell_length_a       6.0228068093395075
_cell_length_b       6.767450362825031
_cell_length_c       11.034576348879003
_cell_angle_alpha    83.32687512056219
_cell_angle_beta     85.9392440380478
_cell_angle_gamma    68.43523089072096

_space_group_name_H-M_alt    "P 1"
_space_group_IT_number       1

loop_
  _space_group_symop_operation_xyz
  'x, y, z'

loop_
  _atom_site_type_symbol
  _atom_site_label
  _atom_site_symmetry_multiplicity
  _atom_site_fract_x
  _atom_site_fract_y
  _atom_site_fract_z
  _atom_site_occupancy
  H   H1        1.0  0.16420884038547703  0.9397547713181824  0.10983378404896375  1.0000
  H   H2        1.0  0.8357911595164638  0.06024522856397939  0.8901662154811382  1.0000
  H   H3        1.0  0.5849407588227126  0.7760043618823547  0.058972415077867456  1.0000
  H   H4        1.0  0.4150592410792283  0.22399563799980704  0.9410275844522344  1.0000
  H   H5        1.0  0.9066298351326189  0.5642858316851108  0.918303276517217  1.0000
  H   H6        1.0  0.09337016476932199  0.4357141681970511  0.08169672301288487  1.0000
  H   H7        1.0  0.41547729438682895  0.5924467847582197  0.6666388718281261  1.0000
  H   H8        1.0  0.5845227048158567  0.40755321655098947  0.33336112861827566  1.0000
  H   H9        1.0  0.07646698911848854  0.8124213289209548  0.7918743787061145  1.0000
  H   H10       1.0  0.9235330107834523  0.18757867096120712  0.2081256208239874  1.0000
  C   C1        1.0  0.11300855781366916  0.9420034302378741  0.016715070555269884  1.0000
  C   C2        1.0  0.8869914437495117  0.05799656964336462  0.9832849289708224  1.0000
  C   C3        1.0  0.30159065594262086  0.8156849436518759  0.9368713264245434  1.0000
  C   C4        1.0  0.6984093439593201  0.184315056230286  0.06312867310555856  1.0000
  C   C5        1.0  0.540491327698855  0.7408404607714505  0.9719523805328104  1.0000
  C   C6        1.0  0.4595086722030859  0.2591595391107113  0.028047618997291534  1.0000
  C   C7        1.0  0.7190559313545364  0.6216460914488467  0.8942712349430564  1.0000
  C   C8        1.0  0.2809440685028463  0.37835390827208587  0.1057287654998764  1.0000
  C   C9        1.0  0.44689300327006537  0.6382777938195071  0.7537771142856433  1.0000
  C   C10       1.0  0.5531069965873175  0.3617222059014254  0.24622288615728943  1.0000
  C   C11       1.0  0.2571101218460188  0.7614200132375639  0.8241387286279748  1.0000
  C   C12       1.0  0.7428898780113641  0.23857998648336864  0.17586127181495811  1.0000
  C   C13       1.0  0.30731220634345763  0.1373587285418909  0.5676237394767184  1.0000
  C   C14       1.0  0.6926877935139251  0.8626412711790418  0.4323762609662145  1.0000
  C   C15       1.0  0.5389331106664947  0.05653556636023282  0.6105997211720281  1.0000
  C   C16       1.0  0.461066889235446  0.943464433521929  0.38940027835807384  1.0000
  C   C17       1.0  0.27189530526851974  0.0785306403587408  0.4556472439833974  1.0000
  C   C18       1.0  0.7281046962946612  0.9214693595224978  0.5443527555426949  1.0000
  N   N1        1.0  0.6755683207835748  0.5688978653997547  0.7873530000104337  1.0000
  N   N2        1.0  0.3244316791183661  0.43110213448240714  0.2126469995196682  1.0000
  F   F1        1.0  0.5828074224391009  0.10569965353502495  0.7199779047728712  1.0000
  F   F2        1.0  0.417192577418282  0.8943003461859075  0.28002209567006175  1.0000
  F   F3        1.0  0.05092577779322972  0.15293227826753725  0.4094109761532352  1.0000
  F   F4        1.0  0.9490742221087111  0.8470677216146246  0.5905890233768667  1.0000
  Br  Br1       1.0  0.04653763047144897  0.3159170310006625  0.6594326734278768  1.0000
  Br  Br2       1.0  0.9534623694304919  0.6840829688814993  0.3405673261022251  1.0000
