data_image0
_chemical_formula_structural       H50C68N8O4F12
_chemical_formula_sum              "H50 C68 N8 O4 F12"
_cell_length_a       11.34234251822143
_cell_length_b       11.634357030134359
_cell_length_c       12.6551519872607
_cell_angle_alpha    68.48043134863471
_cell_angle_beta     77.40015656529623
_cell_angle_gamma    68.8967574000807

_space_group_name_H-M_alt    "P 1"
_space_group_IT_number       1

loop_
  _space_group_symop_operation_xyz
  'x, y, z'

loop_
  _atom_site_type_symbol
  _atom_site_label
  _atom_site_symmetry_multiplicity
  _atom_site_fract_x
  _atom_site_fract_y
  _atom_site_fract_z
  _atom_site_occupancy
  H   H1        1.0  0.08271833508531069  0.3962745804717312  0.9940151052271367  1.0000
  H   H2        1.0  0.9172816646457571  0.6037254185889516  0.005984895619095852  1.0000
  H   H3        1.0  0.2633684578756064  0.50992779701501  0.88249501067113  1.0000
  H   H4        1.0  0.7366315424751868  0.49007220301490606  0.11750498894283207  1.0000
  H   H5        1.0  0.7596299618604161  0.3221800773800957  0.7526449777796844  1.0000
  H   H6        1.0  0.24037003848444924  0.6778199226491494  0.2473550226258364  1.0000
  H   H7        1.0  0.9289251712614619  0.08128224278439906  0.7912532099937082  1.0000
  H   H8        1.0  0.07107482908340355  0.9187177572448462  0.20874679041181265  1.0000
  H   H9        1.0  0.9958415964398759  0.13551426154596347  0.9551842497752786  1.0000
  H   H10       1.0  0.004158403910917238  0.8644857384839527  0.04481574983868334  1.0000
  H   H11       1.0  0.7638199916740028  0.20319174531545534  0.007150575380715431  1.0000
  H   H12       1.0  0.2361800086767904  0.7968082547144606  0.9928494242332467  1.0000
  H   H13       1.0  0.6754369955200039  0.26905767602101677  0.1823346682346433  1.0000
  H   H14       1.0  0.32456300483078915  0.7309423240088994  0.8176653313793187  1.0000
  H   H15       1.0  0.8211995376302774  0.26235351730879797  0.3063218545905278  1.0000
  H   H16       1.0  0.17880046271458794  0.7376464827204471  0.6936781458149931  1.0000
  H   H17       1.0  0.05497260140610047  0.19507650755024683  0.2531957415443894  1.0000
  H   H18       1.0  0.9450273989446928  0.8049234924796691  0.7468042580695727  1.0000
  H   H19       1.0  0.6166392610174728  0.43024757398874264  0.9511887218514007  1.0000
  H   H20       1.0  0.3833607393333205  0.5697524260411734  0.04881127776256132  1.0000
  H   H21       1.0  0.6479587407617506  0.6472073949447089  0.8699674897757214  1.0000
  H   H22       1.0  0.3520412595890424  0.35279260508520716  0.13003250983824066  1.0000
  H   H23       1.0  0.5775177729399876  0.7909536752022821  0.6772904688704883  1.0000
  H   H24       1.0  0.42248222679107994  0.2090463238584007  0.3227095319757445  1.0000
  H   H25       1.0  0.47214677319501897  0.7185549835387182  0.5725827629380513  1.0000
  H   H26       1.0  0.5278532262456421  0.2814450164932456  0.42741723763797446  1.0000
  H   H27       1.0  0.09739882241257836  0.7340056722049054  0.5196366094544792  1.0000
  H   H28       1.0  0.9026011779382149  0.2659943278250106  0.48036339015948276  1.0000
  H   H29       1.0  0.8859441505303809  0.7051561248208268  0.2902385203414633  1.0000
  H   H30       1.0  0.11405584891620815  0.294843875211808  0.7097614794430035  1.0000
  H   H31       1.0  0.2311868264411984  0.40147754769193833  0.40116705450228934  1.0000
  H   H32       1.0  0.7688131730053904  0.5985224523406966  0.5988329452821777  1.0000
  H   H33       1.0  0.43495573428564405  0.10093502904412054  0.978410759946193  1.0000
  H   H34       1.0  0.5650442651550172  0.8990649709878431  0.02158924062983292  1.0000
  H   H35       1.0  0.4321654834775069  0.39351299373812426  0.6746716138978643  1.0000
  H   H36       1.0  0.5678345168732862  0.6064870062917919  0.3253283857160978  1.0000
  H   H37       1.0  0.3202633184731828  0.4042359003278547  0.5561613655759333  1.0000
  H   H38       1.0  0.6797366818776105  0.5957640997020612  0.44383863403802865  1.0000
  H   H39       1.0  0.30964106008332604  0.057336929600582925  0.8280182756999539  1.0000
  H   H40       1.0  0.6903589405578737  0.942663069458052  0.17198172418421498  1.0000
  H   H41       1.0  0.4671864426711579  0.947726951222824  0.8494753521362025  1.0000
  H   H42       1.0  0.5328135567695033  0.052273048809139924  0.1505246484398232  1.0000
  H   H43       1.0  0.38872004339569227  0.9586202262560618  0.7383895968868114  1.0000
  H   H44       1.0  0.6112799569551008  0.04137977377385437  0.26161040272715064  1.0000
  H   H45       1.0  0.592820641298534  0.023663426014398865  0.5932788104569537  1.0000
  H   H46       1.0  0.4071793593367378  0.9763365730435652  0.406721190218774  1.0000
  H   H47       1.0  0.652507157624345  0.009122695086749243  0.7167389561421934  1.0000
  H   H48       1.0  0.3474928427205203  0.9908773049424959  0.2832610442633276  1.0000
  H   H49       1.0  0.624395884455864  0.1598132615756313  0.6014835311019032  1.0000
  H   H50       1.0  0.3756041158890014  0.8401867384536137  0.3985164693036176  1.0000
  C   C1        1.0  0.24088726306562241  0.21106297250368902  0.008968050826016762  1.0000
  C   C2        1.0  0.7591127372851708  0.788937027526227  0.9910319487879452  1.0000
  C   C3        1.0  0.1827204383259232  0.34916465285452103  0.9755889001193851  1.0000
  C   C4        1.0  0.8172795620189421  0.650835347174724  0.024411100286135873  1.0000
  C   C5        1.0  0.2750605407201511  0.406788564529815  0.9187126591252146  1.0000
  C   C6        1.0  0.7249394596247144  0.59321143549943  0.08128734128030629  1.0000
  C   C7        1.0  0.39258605626511317  0.3056690627624005  0.9140020700897511  1.0000
  C   C8        1.0  0.607413943175548  0.6943309372695633  0.0859979304862745  1.0000
  C   C9        1.0  0.5117872839809202  0.31845311395452663  0.8625311575298964  1.0000
  C   C10       1.0  0.48821271636394525  0.6815468860747184  0.13746884287562455  1.0000
  C   C11       1.0  0.6225936823057002  0.21293171267856367  0.8598370131208988  1.0000
  C   C12       1.0  0.37740631804509295  0.7870682873513526  0.14016298649306316  1.0000
  C   C13       1.0  0.7434953133227086  0.22983609017420759  0.8008898833615655  1.0000
  C   C14       1.0  0.25650468702808454  0.7701639098557086  0.1991101162523964  1.0000
  C   C15       1.0  0.8287198847020943  0.1087631007078506  0.8204603249494227  1.0000
  C   C16       1.0  0.171280115642771  0.8912368993213944  0.17953967545609836  1.0000
  C   C17       1.0  0.7592456925003253  0.01866862488095766  0.8908932132731306  1.0000
  C   C18       1.0  0.24075430784454008  0.9813313751482874  0.10910678713239014  1.0000
  C   C19       1.0  0.18093520212820738  0.11651758493735384  0.07105029094802709  1.0000
  C   C20       1.0  0.8190647973124539  0.8834824150946101  0.9289497096279987  1.0000
  C   C21       1.0  0.040605580852833806  0.1627864685323775  0.10011081553347809  1.0000
  C   C22       1.0  0.9593944194979592  0.8372135314975386  0.8998891840804837  1.0000
  C   C23       1.0  0.9577080794282657  0.1650014467530506  0.03139612107527418  1.0000
  C   C24       1.0  0.042291920922527274  0.8349985532768653  0.9686038785386878  1.0000
  C   C25       1.0  0.8268222024946175  0.20312009395447947  0.060919680988648105  1.0000
  C   C26       1.0  0.17317779695197155  0.7968799060781554  0.9390803187958189  1.0000
  C   C27       1.0  0.7776353859416756  0.23971349473293188  0.15894609712459096  1.0000
  C   C28       1.0  0.2223646134989855  0.760286505299032  0.8410539034514347  1.0000
  C   C29       1.0  0.8596132896877952  0.23704048630541005  0.2282306988253096  1.0000
  C   C30       1.0  0.14038670975879408  0.7629595137272246  0.7717693009591573  1.0000
  C   C31       1.0  0.9905049887332178  0.1988596088952297  0.19874451775374558  1.0000
  C   C32       1.0  0.009495010713371265  0.8011403911374052  0.8012554820307213  1.0000
  C   C33       1.0  0.5244645805913108  0.4518161960833937  0.8106587180570454  1.0000
  C   C34       1.0  0.4755354197594823  0.5481838039465223  0.18934128155691665  1.0000
  C   C35       1.0  0.5837247100107221  0.4947660259126023  0.8686169201936307  1.0000
  C   C36       1.0  0.416275290340071  0.5052339741173139  0.13138307942033137  1.0000
  C   C37       1.0  0.6012484479946898  0.6168212876367845  0.823073984478567  1.0000
  C   C38       1.0  0.3987515523501755  0.38317871239246054  0.17692601592695395  1.0000
  C   C39       1.0  0.5613656766558919  0.6966208575536619  0.7159438052624881  1.0000
  C   C40       1.0  0.43863432279069714  0.3033791424789729  0.2840561945219787  1.0000
  C   C41       1.0  0.5030494320499408  0.6562278211298036  0.6558939370527759  1.0000
  C   C42       1.0  0.49695056829492457  0.34377217889944145  0.34410606335274496  1.0000
  C   C43       1.0  0.4822700478432833  0.5344198353741939  0.7031776557898454  1.0000
  C   C44       1.0  0.51772995250751  0.46558016465572216  0.2968223438241167  1.0000
  C   C45       1.0  0.33281869865784186  0.5704994739413289  0.5708243660949698  1.0000
  C   C46       1.0  0.6671813016870235  0.42950052608791617  0.4291756343105511  1.0000
  C   C47       1.0  0.17754982097416808  0.5604704310078824  0.4690922339452892  1.0000
  C   C48       1.0  0.8224501793706973  0.43952956902136264  0.5309077664602316  1.0000
  C   C49       1.0  0.08683628220545514  0.6803531329841989  0.4699618582160253  1.0000
  C   C50       1.0  0.9131637181394102  0.31964686704504613  0.5300381421894956  1.0000
  C   C51       1.0  0.9833297961207451  0.7300306243945178  0.40653929676849665  1.0000
  C   C52       1.0  0.016670203325843923  0.26996937563811696  0.5934607030159701  1.0000
  C   C53       1.0  0.9675208650128235  0.6654922212025943  0.3392660956550079  1.0000
  C   C54       1.0  0.032479135337969665  0.3345077788273218  0.660733903958954  1.0000
  C   C55       1.0  0.058512580820723775  0.5467820125820093  0.3389734427394093  1.0000
  C   C56       1.0  0.9414874195300694  0.45321798744790676  0.6610265568745526  1.0000
  C   C57       1.0  0.161552733812361  0.4938911916586813  0.4034213628443061  1.0000
  C   C58       1.0  0.8384472665325043  0.5061088083705637  0.5965786375612149  1.0000
  C   C59       1.0  0.8833420316232018  0.8552030361432406  0.4118853700856869  1.0000
  C   C60       1.0  0.11665796872759154  0.14479696388667543  0.5881146295282753  1.0000
  C   C61       1.0  0.04877484823024838  0.4772894825929803  0.2635052904168773  1.0000
  C   C62       1.0  0.9512251512104128  0.5227105174389834  0.7364947101591485  1.0000
  C   C63       1.0  0.40152811789023723  0.01556099185915741  0.7854814117355605  1.0000
  C   C64       1.0  0.5984718824546282  0.9844390081700876  0.2145185886699604  1.0000
  C   C65       1.0  0.45563292785985776  0.1193981310237921  0.703588281810538  1.0000
  C   C66       1.0  0.5443670724850075  0.880601869005453  0.2964117185949829  1.0000
  C   C67       1.0  0.5893600786597987  0.0771481913467172  0.6506053279918054  1.0000
  C   C68       1.0  0.4106399216909945  0.922851808683199  0.34939467162215665  1.0000
  N   N1        1.0  0.3677338479970472  0.1893995668542691  0.9700897933499344  1.0000
  N   N2        1.0  0.632266151443614  0.8106004331776947  0.029910207226091393  1.0000
  N   N3        1.0  0.6332666875957863  0.0835523364230519  0.9126009678684984  1.0000
  N   N4        1.0  0.36673331274907917  0.9164476636061931  0.08739903253702236  1.0000
  N   N5        1.0  0.4234484805282392  0.4905403331813611  0.6455071183028999  1.0000
  N   N6        1.0  0.5765515189183498  0.5094596668512736  0.3544928814815669  1.0000
  N   N7        1.0  0.2811749760238715  0.5028992272843772  0.5332815693652576  1.0000
  N   N8        1.0  0.7188250243269215  0.49710077274553893  0.4667184302487045  1.0000
  O   O1        1.0  0.2998918033547221  0.690589284571778  0.539825282681322  1.0000
  O   O2        1.0  0.700108196990143  0.30941071545746696  0.4601747177241989  1.0000
  O   O3        1.0  0.39053213250335067  0.23540554060914004  0.6794477029451731  1.0000
  O   O4        1.0  0.6094678678474428  0.764594459420776  0.3205522966687888  1.0000
  F   F1        1.0  0.9152776416060899  0.9172830137546012  0.46834022874944564  1.0000
  F   F2        1.0  0.08472235783457133  0.08271698627736251  0.5316597718265801  1.0000
  F   F3        1.0  0.8576273969761034  0.9401447780874741  0.30505937394681326  1.0000
  F   F4        1.0  0.1423726024704856  0.05985522194516068  0.6949406258376536  1.0000
  F   F5        1.0  0.7690124577544215  0.8358983249656026  0.4660200420806298  1.0000
  F   F6        1.0  0.23098754259637166  0.16410167506431345  0.5339799575333324  1.0000
  F   F7        1.0  0.9266387544702595  0.48225533982078556  0.2635068650329597  1.0000
  F   F8        1.0  0.07336124588053379  0.5177446602091305  0.7364931345810023  1.0000
  F   F9        1.0  0.09058903954311041  0.5306561670237132  0.1520290039925746  1.0000
  F   F10       1.0  0.9094109608017549  0.46934383300553173  0.8479709964129463  1.0000
  F   F11       1.0  0.11949545157049131  0.3490200968560972  0.2958191659805173  1.0000
  F   F12       1.0  0.8805045487803018  0.6509799031738189  0.7041808336334446  1.0000
