data_image0
_chemical_formula_structural       H16C8N16O8
_chemical_formula_sum              "H16 C8 N16 O8"
_cell_length_a       3.4919419171655526
_cell_length_b       8.759940902883711
_cell_length_c       13.37643170202978
_cell_angle_alpha    90.0
_cell_angle_beta     93.3566574538696
_cell_angle_gamma    90.0

_space_group_name_H-M_alt    "P 1"
_space_group_IT_number       1

loop_
  _space_group_symop_operation_xyz
  'x, y, z'

loop_
  _atom_site_type_symbol
  _atom_site_label
  _atom_site_symmetry_multiplicity
  _atom_site_fract_x
  _atom_site_fract_y
  _atom_site_fract_z
  _atom_site_occupancy
  H   H1        1.0  0.3951980220735155  0.7303647936590347  0.5724867162155123  1.0000
  H   H2        1.0  0.604801978609685  0.2303647938236312  0.9275132844532471  1.0000
  H   H3        1.0  0.6048019783599231  0.26963520601177227  0.4275132844617093  1.0000
  H   H4        1.0  0.3951980218237536  0.7696352058471757  0.07248671622397444  1.0000
  H   H5        1.0  0.4275526623463998  0.0035724875712001636  0.689187740807519  1.0000
  H   H6        1.0  0.5724473383124317  0.5035724874066037  0.8108122591133113  1.0000
  H   H7        1.0  0.5724473380626697  0.996427513241167  0.31081225912177346  1.0000
  H   H8        1.0  0.4275526620966378  0.49642751226420334  0.1891877408159812  1.0000
  H   H9        1.0  0.05885173901874497  0.9331274731898167  0.6097722880285137  1.0000
  H   H10       1.0  0.9411482587715325  0.4331274733544133  0.8902277118548219  1.0000
  H   H11       1.0  0.9411482585217704  0.06687252648099018  0.3902277118632839  1.0000
  H   H12       1.0  0.058851738768982975  0.5668725263163936  0.10977228803697586  1.0000
  H   H13       1.0  0.35328279516156197  0.07388557721741425  0.5710218831767567  1.0000
  H   H14       1.0  0.6467172054972695  0.5738855770528177  0.9289781167440737  1.0000
  H   H15       1.0  0.6467172052475074  0.9261144224533926  0.4289781167525358  1.0000
  H   H16       1.0  0.35328279491180004  0.4261144226179892  0.0710218831852189  1.0000
  C   C1        1.0  0.12373941806310508  0.5002905269095258  0.5989177308590848  1.0000
  C   C2        1.0  0.8762605825957264  0.0002905270741224069  0.9010822690617455  1.0000
  C   C3        1.0  0.8762605823459644  0.499709472761281  0.4010822690702076  1.0000
  C   C4        1.0  0.12373941781334309  0.9997094725966846  0.09891773086754703  1.0000
  C   C5        1.0  0.07834524296081029  0.6271481795261297  0.4484441626030807  1.0000
  C   C6        1.0  0.9216547571984971  0.12714817969072614  0.051555837334674004  1.0000
  C   C7        1.0  0.9216547574482592  0.3728518201446773  0.5515558373262118  1.0000
  C   C8        1.0  0.0783452432105723  0.8728518199800808  0.9484441625946185  1.0000
  N   N1        1.0  0.20543156428521345  0.4680791006992062  0.6936865024112309  1.0000
  N   N2        1.0  0.794568436373618  0.9680791016761698  0.8063134975095996  1.0000
  N   N3        1.0  0.794568436123856  0.5319208989716008  0.3063134975180617  1.0000
  N   N4        1.0  0.20543156403545143  0.03192089913619729  0.19368650241969296  1.0000
  N   N5        1.0  0.21212364427032454  0.6284947548205038  0.5468169770442892  1.0000
  N   N6        1.0  0.787876356388507  0.1284947549851002  0.953183022876541  1.0000
  N   N7        1.0  0.7878763561387448  0.37150524599186346  0.4531830228850033  1.0000
  N   N8        1.0  0.21212364402056258  0.871505245827267  0.04681697705275142  1.0000
  N   N9        1.0  0.11475677197943707  0.7369218401775895  0.38296144543281835  1.0000
  N   N10       1.0  0.8852432253113164  0.23692184034218605  0.11703855446744145  1.0000
  N   N11       1.0  0.8852432255610784  0.2630781606347776  0.6170385544589793  1.0000
  N   N12       1.0  0.11475677222919908  0.7630781604701811  0.8829614454243562  1.0000
  N   N13       1.0  0.3428768254869112  0.977159725721683  0.6153693376866061  1.0000
  N   N14       1.0  0.6571231751719203  0.4771597258862795  0.8846306622342243  1.0000
  N   N15       1.0  0.6571231749221583  0.02284027394912393  0.3846306622426865  1.0000
  N   N16       1.0  0.3428768252371492  0.5228402749260875  0.11536933769506816  1.0000
  O   O1        1.0  0.05867146596700719  0.3192381821981709  0.7069234058808515  1.0000
  O   O2        1.0  0.9413285318232703  0.8192381820335743  0.793076594002484  1.0000
  O   O3        1.0  0.9413285315735083  0.6807618174726361  0.2930765940109461  1.0000
  O   O4        1.0  0.058671465717245186  0.18076181763723256  0.2069234058893137  1.0000
  O   O5        1.0  0.6021013956897432  0.8683282860385498  0.5799161316998884  1.0000
  O   O6        1.0  0.3978986049690883  0.36832828620314634  0.9200838682209419  1.0000
  O   O7        1.0  0.3978986047193263  0.13167171363225713  0.42008386822940413  1.0000
  O   O8        1.0  0.6021013954399812  0.6316717134676606  0.07991613170835056  1.0000
