data_image0
_chemical_formula_structural       H48C48N4O8F4S12
_chemical_formula_sum              "H48 C48 N4 O8 F4 S12"
_cell_length_a       7.009831801720346
_cell_length_b       27.688287306832954
_cell_length_c       7.6300215258404105
_cell_angle_alpha    90.0
_cell_angle_beta     110.20275139890647
_cell_angle_gamma    90.0

_space_group_name_H-M_alt    "P 1"
_space_group_IT_number       1

loop_
  _space_group_symop_operation_xyz
  'x, y, z'

loop_
  _atom_site_type_symbol
  _atom_site_label
  _atom_site_symmetry_multiplicity
  _atom_site_fract_x
  _atom_site_fract_y
  _atom_site_fract_z
  _atom_site_occupancy
  H   H1        1.0  0.1268747818447684  0.46739945257669585  0.24052650259708516  1.0000
  H   H2        1.0  0.8731252174416362  0.967399452453305  0.25947349822257065  1.0000
  H   H3        1.0  0.8731252171551892  0.5326005475376862  0.759473497229921  1.0000
  H   H4        1.0  0.1268747830783769  0.032600547299913414  0.7405265020954265  1.0000
  H   H5        1.0  0.357741530337787  0.5583164765191182  0.6447539294958087  1.0000
  H   H6        1.0  0.642258469885667  0.058316476642508906  0.8552460711369139  1.0000
  H   H7        1.0  0.642258470182226  0.4416835232341004  0.35524607082218845  1.0000
  H   H8        1.0  0.35774152911429075  0.9416835234718731  0.14475392869009243  1.0000
  H   H9        1.0  0.4254451050457435  0.642784817738  0.5847073318104727  1.0000
  H   H10       1.0  0.5745548951878228  0.14278481786139072  0.9152926675148749  1.0000
  H   H11       1.0  0.5745548954742696  0.35721518201521857  0.41529266850752444  1.0000
  H   H12       1.0  0.42544510533219043  0.8572151822529913  0.08470733280312227  1.0000
  H   H13       1.0  0.1449869537421717  0.3517191028134383  0.6825781690556064  1.0000
  H   H14       1.0  0.855013044961227  0.8517191026900476  0.8174218310861253  1.0000
  H   H15       1.0  0.855013045257786  0.6482808973009437  0.31742183077139985  1.0000
  H   H16       1.0  0.14498695403873074  0.14828089706317094  0.18257816874088095  1.0000
  H   H17       1.0  0.12821519180178226  0.531358646237727  0.04916272692878264  1.0000
  H   H18       1.0  0.8717848074947345  0.0313586459999542  0.4508372725834982  1.0000
  H   H19       1.0  0.8717848087182308  0.46864135387665506  0.9508372733892146  1.0000
  H   H20       1.0  0.12821519151533542  0.9686413537532643  0.549162725936133  1.0000
  H   H21       1.0  0.1930714807868414  0.6168894020319134  0.9901085754706376  1.0000
  H   H22       1.0  0.8069285194366126  0.11688940215530412  0.509891425162085  1.0000
  H   H23       1.0  0.8069285182131164  0.3831105977213051  0.009891424356368713  1.0000
  H   H24       1.0  0.19307148108340044  0.883110597959078  0.4901085751559121  1.0000
  H   H25       1.0  0.4273254520175616  0.24807198957029514  0.8896389593377135  1.0000
  H   H26       1.0  0.5726745482058925  0.7480719894469043  0.6103610412950089  1.0000
  H   H27       1.0  0.5726745485024515  0.751928010544087  0.11036104098028354  1.0000
  H   H28       1.0  0.4273254523141206  0.2519280103063141  0.3896389590229882  1.0000
  H   H29       1.0  0.27693269219641786  0.20520907331808189  0.7180336026665342  1.0000
  H   H30       1.0  0.7230673080270362  0.7052090731946912  0.7819663979661885  1.0000
  H   H31       1.0  0.7230673083235952  0.7947909267963001  0.28196639765146303  1.0000
  H   H32       1.0  0.2769326909729215  0.29479092691969094  0.21803360186081777  1.0000
  H   H33       1.0  0.2975814616359888  0.19957122803461874  0.9598080584076155  1.0000
  H   H34       1.0  0.7024185370674099  0.699571227911228  0.540191941734116  1.0000
  H   H35       1.0  0.7024185373639689  0.8004287720797633  0.040191941419390656  1.0000
  H   H36       1.0  0.2975814619325479  0.30042877220315406  0.45980805809289016  1.0000
  H   H37       1.0  0.900157939663411  0.20499176446349934  0.5855826923874797  1.0000
  H   H38       1.0  0.09984206056004304  0.7049917643401086  0.9144173082452428  1.0000
  H   H39       1.0  0.09984206085660209  0.7950082356508826  0.4144173079305174  1.0000
  H   H40       1.0  0.9001579399599701  0.29500823577427343  0.08558269207275433  1.0000
  H   H41       1.0  0.7359018708740352  0.2391206215332105  0.67728184082017  1.0000
  H   H42       1.0  0.26409812934941884  0.7391206214098198  0.8227181598125526  1.0000
  H   H43       1.0  0.26409812964597784  0.7608793785811715  0.3227181594978272  1.0000
  H   H44       1.0  0.7359018711705944  0.26087937834339875  0.17728184050544457  1.0000
  H   H45       1.0  0.8949352962497833  0.19148343309380503  0.8151624202168662  1.0000
  H   H46       1.0  0.10506470398378295  0.6914834329704143  0.6848375791084813  1.0000
  H   H47       1.0  0.10506470428034201  0.808516567020577  0.1848375787937559  1.0000
  H   H48       1.0  0.8949352950161749  0.30851656678280426  0.3151624207185249  1.0000
  C   C1        1.0  0.2714930548909743  0.41619954395504005  0.8277719377676086  1.0000
  C   C2        1.0  0.728506945342592  0.9161995438316493  0.672228061557739  1.0000
  C   C3        1.0  0.7285069456290388  0.583800456159342  0.17222806255038856  1.0000
  C   C4        1.0  0.27149305365736576  0.08380045592156923  0.32777193826926726  1.0000
  C   C5        1.0  0.18875264987212528  0.4880772031957712  0.3700856874579526  1.0000
  C   C6        1.0  0.8112473509444469  0.9880772030723804  0.1299143125453192  1.0000
  C   C7        1.0  0.8112473506478878  0.511922796918611  0.6299143128600446  1.0000
  C   C8        1.0  0.1887526495755662  0.011922797042001658  0.870085687772678  1.0000
  C   C9        1.0  0.14347045887798385  0.40964960361419256  0.5004031600289921  1.0000
  C   C10       1.0  0.8565295413454701  0.9096496034908018  0.9995968406037304  1.0000
  C   C11       1.0  0.8565295416420292  0.5903503965001895  0.4995968402890051  1.0000
  C   C12       1.0  0.14347045917454293  0.0903503962624167  0.00040315971426669445  1.0000
  C   C13       1.0  0.32003249326941596  0.5701346022259851  0.5005489640202075  1.0000
  C   C14       1.0  0.6799675069641502  0.07013460234937584  0.99945103530514  1.0000
  C   C15       1.0  0.6799675072505972  0.42986539752723346  0.4994510362977896  1.0000
  C   C16       1.0  0.3200324935659751  0.9298653977650063  0.0005489637054821537  1.0000
  C   C17       1.0  0.20860309594561532  0.46098777828161625  0.5237479592405448  1.0000
  C   C18       1.0  0.7913969042778388  0.9609877781582254  0.9762520413921776  1.0000
  C   C19       1.0  0.7913969045743979  0.5390122218327659  0.4762520410774523  1.0000
  C   C20       1.0  0.20860309624217438  0.03901222195615657  0.02374795892581953  1.0000
  C   C21       1.0  0.36011041212182116  0.6179107259472074  0.46902531240551015  1.0000
  C   C22       1.0  0.6398895871746956  0.11791072570943457  0.030974687106770663  1.0000
  C   C23       1.0  0.6398895884083042  0.3820892741671747  0.530974686605112  1.0000
  C   C24       1.0  0.3601104118252621  0.8820892740437839  0.9690253127202356  1.0000
  C   C25       1.0  0.23534905227103217  0.5380440908067133  0.3498888591410849  1.0000
  C   C26       1.0  0.7646509470254845  0.038044090930104094  0.15011114037119597  1.0000
  C   C27       1.0  0.7646509467390378  0.4619559089465051  0.6501111393785465  1.0000
  C   C28       1.0  0.23534905349452853  0.961955909184278  0.8498888599468013  1.0000
  C   C29       1.0  0.19177873460923886  0.5558837962578376  0.16665038496871176  1.0000
  C   C30       1.0  0.8082212646771658  0.055883796381228264  0.333349615850944  1.0000
  C   C31       1.0  0.8082212659107743  0.44411620385654454  0.8333496153492853  1.0000
  C   C32       1.0  0.19177873432279202  0.9441162037331539  0.6666503839760621  1.0000
  C   C33       1.0  0.22924718759923737  0.6035632686416064  0.13210257026985142  1.0000
  C   C34       1.0  0.7707528116972794  0.10356326840383358  0.3678974292424294  1.0000
  C   C35       1.0  0.7707528129207757  0.39643673147277564  0.8678974300481458  1.0000
  C   C36       1.0  0.22924718730267835  0.8964367313493848  0.6321025705845769  1.0000
  C   C37       1.0  0.31478607413234844  0.6334197744210734  0.28556518301020306  1.0000
  C   C38       1.0  0.6852139266842237  0.13341977418330056  0.21443481699306866  1.0000
  C   C39       1.0  0.6852139263876648  0.3665802256933087  0.7144348173077941  1.0000
  C   C40       1.0  0.3147860738357893  0.866580225569918  0.7855651833249285  1.0000
  C   C41       1.0  0.2929684670125986  0.2246335138419735  0.8476677425500037  1.0000
  C   C42       1.0  0.7070315332108554  0.7246335137185828  0.652332258082719  1.0000
  C   C43       1.0  0.7070315319873592  0.7753664862724086  0.15233225727700273  1.0000
  C   C44       1.0  0.29296846730915765  0.27536648603463576  0.34766774223527813  1.0000
  C   C45       1.0  0.8804509189780482  0.2198046806780311  0.7113017400806134  1.0000
  C   C46       1.0  0.11954907972535049  0.7198046805546404  0.7886982600611182  1.0000
  C   C47       1.0  0.11954908002190956  0.7801953194363509  0.28869825974639274  1.0000
  C   C48       1.0  0.8804509192746073  0.2801953195597417  0.21130173976588806  1.0000
  N   N1        1.0  0.185091655245192  0.38832842280376684  0.6741270960497557  1.0000
  N   N2        1.0  0.8149083434582066  0.8883284226803762  0.8258729040919759  1.0000
  N   N3        1.0  0.8149083437547657  0.6116715773106152  0.3258729037772505  1.0000
  N   N4        1.0  0.18509165554175105  0.11167157743400594  0.17412709573503038  1.0000
  O   O1        1.0  0.06429496886300134  0.38815867846573987  0.3514102902096678  1.0000
  O   O2        1.0  0.9357050304335155  0.8881586783423491  0.14858970930261306  1.0000
  O   O3        1.0  0.9357050301369564  0.6118413216486421  0.6485897096173384  1.0000
  O   O4        1.0  0.06429496856644228  0.11184132177203293  0.8514102905243932  1.0000
  O   O5        1.0  0.0720252222661116  0.2963206510059311  0.6475605476470554  1.0000
  O   O6        1.0  0.9279747779573425  0.7963206508825403  0.852439452985667  1.0000
  O   O7        1.0  0.9279747782539014  0.7036793491084509  0.3524394526709417  1.0000
  O   O8        1.0  0.07202522256267066  0.20367934887067818  0.14756054733233007  1.0000
  F   F1        1.0  0.35787822547928927  0.6803291702824588  0.25479678180322674  1.0000
  F   F2        1.0  0.6421217738172275  0.1803291704058495  0.24520321770905412  1.0000
  F   F3        1.0  0.6421217750407238  0.3196708298319233  0.7452032185147706  1.0000
  F   F4        1.0  0.3578782251827302  0.8196708297085327  0.7547967821179521  1.0000
  S   S1        1.0  0.30659673273975674  0.4754343652289168  0.7609686646014918  1.0000
  S   S2        1.0  0.6934032674836973  0.975434365105526  0.7390313360312308  1.0000
  S   S3        1.0  0.6934032677802564  0.5245656348854654  0.23903133571650542  1.0000
  S   S4        1.0  0.3065967315162604  0.024565635008856043  0.26096866379577544  1.0000
  S   S5        1.0  0.33490787481518897  0.39861923952501943  0.04636302152241549  1.0000
  S   S6        1.0  0.6650921244813277  0.8986192397627921  0.4536369779898653  1.0000
  S   S7        1.0  0.6650921257048242  0.6013807602281991  0.9536369787955817  1.0000
  S   S8        1.0  0.33490787451862986  0.10138076035158988  0.5463630218371408  1.0000
  S   S9        1.0  0.07722527269942471  0.2636587369634246  0.8106036841993548  1.0000
  S   S10       1.0  0.9227747260140862  0.7636587372011975  0.6893963146350018  1.0000
  S   S11       1.0  0.9227747263005329  0.7363412627897938  0.18939631562765136  1.0000
  S   S12       1.0  0.07722527298587158  0.2363412629131846  0.31060368519200443  1.0000
