data_image0
_chemical_formula_structural       H100C136N8O16Cl20
_chemical_formula_sum              "H100 C136 N8 O16 Cl20"
_cell_length_a       13.890547463604243
_cell_length_b       18.47451694679602
_cell_length_c       13.962056514459059
_cell_angle_alpha    90.0
_cell_angle_beta     120.065661396392
_cell_angle_gamma    90.0

_space_group_name_H-M_alt    "P 1"
_space_group_IT_number       1

loop_
  _space_group_symop_operation_xyz
  'x, y, z'

loop_
  _atom_site_type_symbol
  _atom_site_label
  _atom_site_symmetry_multiplicity
  _atom_site_fract_x
  _atom_site_fract_y
  _atom_site_fract_z
  _atom_site_occupancy
  H   H1        1.0  0.9599043387124356  0.4162543687689583  0.5213660213818222  1.0000
  H   H2        1.0  0.5400956610677784  0.9162543685850287  0.4786339779515547  1.0000
  H   H3        1.0  0.04009566095515259  0.5837456314044688  0.4786339781467812  1.0000
  H   H4        1.0  0.45990433859981006  0.08374563104711213  0.5213660215770488  1.0000
  H   H5        1.0  0.995362129561522  0.4128061968798931  0.8094933686838522  1.0000
  H   H6        1.0  0.5046378706238654  0.9128061966959635  0.1905066314769943  1.0000
  H   H7        1.0  0.004637870511239671  0.5871938032935339  0.19050663167222082  1.0000
  H   H8        1.0  0.49536212944889635  0.08719380347746343  0.809493368879079  1.0000
  H   H9        1.0  0.15918118875299714  0.29201722001914737  0.4838027254852403  1.0000
  H   H10       1.0  0.34081881120713886  0.7920172203765039  0.5161972750660594  1.0000
  H   H11       1.0  0.8408188113197644  0.7079827796129935  0.5161972748708329  1.0000
  H   H12       1.0  0.6591811888656229  0.20798277979692306  0.4838027252900138  1.0000
  H   H13       1.0  0.29327513667646826  0.11951031447038234  0.6726788519801643  1.0000
  H   H14       1.0  0.2067248628784944  0.6195103142864528  0.32732114774366566  1.0000
  H   H15       1.0  0.7067248633962934  0.8804896857030446  0.3273211483759089  1.0000
  H   H16       1.0  0.7932751367890939  0.38048968588697424  0.6726788517849377  1.0000
  H   H17       1.0  0.15759491921879235  0.08165167047908176  0.6029102903436842  1.0000
  H   H18       1.0  0.34240508106265904  0.5816516702951522  0.3970897093933849  1.0000
  H   H19       1.0  0.8424050804487961  0.9183483296943453  0.3970897091849194  1.0000
  H   H20       1.0  0.6575949193314181  0.4183483293369887  0.6029102901484577  1.0000
  H   H21       1.0  0.14473993027201  0.10712285445402238  0.41820117216061087  1.0000
  H   H22       1.0  0.355260069688126  0.607122854811379  0.5817988283906889  1.0000
  H   H23       1.0  0.8552600698007516  0.8928771451781186  0.5817988281954624  1.0000
  H   H24       1.0  0.6447399303846357  0.39287714536204804  0.41820117196538437  1.0000
  H   H25       1.0  0.281407590066313  0.14444405705897473  0.48960002582212814  1.0000
  H   H26       1.0  0.21859241021513826  0.6444440568750452  0.5103999739149407  1.0000
  H   H27       1.0  0.7185924096012754  0.8555559431144523  0.5103999737064753  1.0000
  H   H28       1.0  0.78140758945245  0.35555594329838186  0.48960002561366267  1.0000
  H   H29       1.0  0.2590815660134512  0.05057098286740474  0.5023540309414943  1.0000
  H   H30       1.0  0.24091843426800003  0.5505709832247614  0.4976459687955745  1.0000
  H   H31       1.0  0.7409184340593105  0.9494290167647362  0.4976459694145789  1.0000
  H   H32       1.0  0.7590815653995883  0.44942901694866566  0.5023540307330289  1.0000
  H   H33       1.0  0.9236548267702274  0.1711926568422942  0.8733782722407437  1.0000
  H   H34       1.0  0.57634517341516  0.6711926566583647  0.12662172792010298  1.0000
  H   H35       1.0  0.0763451733025343  0.8288073433311328  0.1266217281153295  1.0000
  H   H36       1.0  0.4236548273840904  0.32880734297377623  0.8733782724492092  1.0000
  H   H37       1.0  0.0670173718164327  0.2015168451073172  0.06741242644043706  1.0000
  H   H38       1.0  0.43298262814370325  0.7015168454646737  0.9325875741108626  1.0000
  H   H39       1.0  0.932982628256329  0.7984831545248237  0.9325875739156362  1.0000
  H   H40       1.0  0.5670173719290584  0.29848315470875325  0.06741242624521054  1.0000
  H   H41       1.0  0.22309374842653365  0.2850842896281196  0.10507264353118428  1.0000
  H   H42       1.0  0.2769062518549177  0.7850842894441901  0.8949273562058847  1.0000
  H   H43       1.0  0.7769062516462282  0.7149157105453074  0.894927356824889  1.0000
  H   H44       1.0  0.7230937485391593  0.21491571072923701  0.10507264333595777  1.0000
  H   H45       1.0  0.8685511886807965  0.4926361563991202  0.0015251527261418906  1.0000
  H   H46       1.0  0.631448811504591  0.9926361562151905  0.9984748474347048  1.0000
  H   H47       1.0  0.13144881098679181  0.5073638437743069  0.9984748468024616  1.0000
  H   H48       1.0  0.36855118929465946  0.007363843958236408  0.0015251529346073263  1.0000
  H   H49       1.0  0.7581640880647854  0.4411230379375819  0.8952283708786589  1.0000
  H   H50       1.0  0.741835912120602  0.9411230382949385  0.10477162928218778  1.0000
  H   H51       1.0  0.2418359120079763  0.5588769616945589  0.10477162947741431  1.0000
  H   H52       1.0  0.2581640875469863  0.05887696187848856  0.8952283702464157  1.0000
  H   H53       1.0  0.8860368678339174  0.36411592570308693  0.06297642864057473  1.0000
  H   H54       1.0  0.61396313235147  0.8641159255191574  0.9370235715202719  1.0000
  H   H55       1.0  0.11396313223884426  0.63588407447034  0.9370235717154983  1.0000
  H   H56       1.0  0.3860368673161183  0.13588407465426966  0.06297642800833149  1.0000
  H   H57       1.0  0.8793301534976238  0.3333749584758765  0.9393899007739118  1.0000
  H   H58       1.0  0.6206698466877636  0.833374958291947  0.06061009938693482  1.0000
  H   H59       1.0  0.12066984616996453  0.6666250416975504  0.060610098754691574  1.0000
  H   H60       1.0  0.37933015338499815  0.16662504188148008  0.9393899009691384  1.0000
  H   H61       1.0  0.9973178826759728  0.38323747031599037  0.038991159929184005  1.0000
  H   H62       1.0  0.5026821175094146  0.8832374706733469  0.9610088402316627  1.0000
  H   H63       1.0  0.0026821169916155974  0.6167625293161506  0.9610088395994194  1.0000
  H   H64       1.0  0.497317882563347  0.11676252950008009  0.038991160124410514  1.0000
  H   H65       1.0  0.5133913091909004  0.7120369229616773  0.5849234117269155  1.0000
  H   H66       1.0  0.9866086905893138  0.21203692314560693  0.41507658760646143  1.0000
  H   H67       1.0  0.486608690476688  0.2879630772117497  0.41507658780168794  1.0000
  H   H68       1.0  0.01339130980476331  0.7879630770278201  0.584923411935381  1.0000
  H   H69       1.0  0.6011635435209355  0.8286014554039435  0.6774108545984688  1.0000
  H   H70       1.0  0.8988364566644519  0.3286014550465869  0.3225891455623779  1.0000
  H   H71       1.0  0.39883645655182626  0.17139854476948355  0.3225891457576044  1.0000
  H   H72       1.0  0.10116354300313635  0.6713985445855539  0.6774108539662256  1.0000
  H   H73       1.0  0.8044279814099754  0.8477649913718703  0.752820993810129  1.0000
  H   H74       1.0  0.695572018775412  0.3477649910145138  0.24717900635071763  1.0000
  H   H75       1.0  0.19557201866278617  0.15223500880155666  0.24717900654594413  1.0000
  H   H76       1.0  0.3044279808921764  0.6522350086176272  0.7528209931778858  1.0000
  H   H77       1.0  0.5079972137636853  0.5840103544288425  0.9530172664923346  1.0000
  H   H78       1.0  0.9920027864217021  0.08401035461277202  0.04698273366851198  1.0000
  H   H79       1.0  0.492002785903903  0.4159896452032984  0.04698273303626874  1.0000
  H   H80       1.0  0.007997213651059543  0.9159896455606551  0.9530172666875611  1.0000
  H   H81       1.0  0.6118864339279475  0.5494125556425066  0.8565818826447508  1.0000
  H   H82       1.0  0.88811356625744  0.0494125558264362  0.1434181175160959  1.0000
  H   H83       1.0  0.3881135661448142  0.4505874445309204  0.1434181177113224  1.0000
  H   H84       1.0  0.1118864334101484  0.9505874443469908  0.8565818820125075  1.0000
  H   H85       1.0  0.5226239805128068  0.46920225329644216  0.6915943011171505  1.0000
  H   H86       1.0  0.9773760196725806  0.9692022531125126  0.30840569904369625  1.0000
  H   H87       1.0  0.47737601955995496  0.5307977468769849  0.30840569923892275  1.0000
  H   H88       1.0  0.022623980400181116  0.030797746519628237  0.691594301312377  1.0000
  H   H89       1.0  0.32757858890155117  0.42738525411725764  0.6189100355857625  1.0000
  H   H90       1.0  0.17242141137990014  0.927385253933328  0.38108996415130636  1.0000
  H   H91       1.0  0.6724214111712106  0.5726147460561694  0.3810899647703107  1.0000
  H   H92       1.0  0.8275785890141768  0.07261474569881278  0.618910035390536  1.0000
  H   H93       1.0  0.22372824013071935  0.46298944944719705  0.7138116890779717  1.0000
  H   H94       1.0  0.2762717594242433  0.9629894492632673  0.2861883106458583  1.0000
  H   H95       1.0  0.7762717599420423  0.5370105507262299  0.2861883112781015  1.0000
  H   H96       1.0  0.7237282402433451  0.037010550368873435  0.7138116888827452  1.0000
  H   H97       1.0  0.0007156275594271416  0.5236362080729651  0.5866485717170029  1.0000
  H   H98       1.0  0.49928437199553544  0.02363620825689464  0.41335142800682695  1.0000
  H   H99       1.0  0.9992843721081612  0.4763637921004619  0.41335142781160045  1.0000
  H   H100      1.0  0.5007156280772262  0.9763637919165324  0.5866485723492462  1.0000
  C   C1        1.0  0.09082336911085595  0.3441897484146549  0.5677129674282372  1.0000
  C   C2        1.0  0.40917663084928  0.8441897482307253  0.43228703312306255  1.0000
  C   C3        1.0  0.9091766309619058  0.6558102517587722  0.43228703292783605  1.0000
  C   C4        1.0  0.5908233692234817  0.15581025140141555  0.5677129672330107  1.0000
  C   C5        1.0  0.11874371225010111  0.2922980219483637  0.6563255923210519  1.0000
  C   C6        1.0  0.3812562880313502  0.7922980217644341  0.343674407416017  1.0000
  C   C7        1.0  0.8812562874174873  0.7077019782250633  0.3436744072075516  1.0000
  C   C8        1.0  0.6187437116362381  0.2077019784089929  0.6563255921125865  1.0000
  C   C9        1.0  0.0858567670400339  0.3202065979335896  0.7268892538608566  1.0000
  C   C10       1.0  0.4141432325149288  0.8202065982909461  0.2731107458629734  1.0000
  C   C11       1.0  0.9141432326275545  0.6797934016985513  0.2731107456677469  1.0000
  C   C12       1.0  0.5858567671526597  0.17979340188248086  0.7268892536656302  1.0000
  C   C13       1.0  0.03441306401928667  0.3895817893765397  0.6859198391070597  1.0000
  C   C14       1.0  0.46558693553567587  0.8895817891926102  0.31408016061677024  1.0000
  C   C15       1.0  0.9655869356483017  0.6104182107968874  0.31408016042154374  1.0000
  C   C16       1.0  0.5344130645370858  0.1104182109808169  0.6859198397393029  1.0000
  C   C17       1.0  0.9932133653198619  0.4336857733857838  0.7356263861364645  1.0000
  C   C18       1.0  0.5067866348655254  0.9336857732018542  0.26437361402438214  1.0000
  C   C19       1.0  0.006786634752899768  0.5663142267876432  0.2643736142196087  1.0000
  C   C20       1.0  0.49321336520723624  0.06631422643028669  0.7356263863316911  1.0000
  C   C21       1.0  0.9455086113678737  0.5035283074945727  0.6993753581880331  1.0000
  C   C22       1.0  0.5544913880910253  0.0035283076785022315  0.3006246419595748  1.0000
  C   C23       1.0  0.05449138870488823  0.49647169213756825  0.3006246421680402  1.0000
  C   C24       1.0  0.4455086119817364  0.9964716924949248  0.6993753583964984  1.0000
  C   C25       1.0  0.882831105683765  0.5471779164300773  0.7317086439332677  1.0000
  C   C26       1.0  0.6171688945016225  0.04717791607272076  0.268291356227579  1.0000
  C   C27       1.0  0.11716889398382344  0.4528220837433497  0.2682913555953358  1.0000
  C   C28       1.0  0.38283110629762784  0.9528220835594202  0.7317086441417331  1.0000
  C   C29       1.0  0.8537319990315332  0.6115010472281517  0.6667270310396608  1.0000
  C   C30       1.0  0.6462680004273655  0.11150104741208115  0.3332729691079469  1.0000
  C   C31       1.0  0.14626800063605513  0.3884989529452754  0.3332729684889426  1.0000
  C   C32       1.0  0.35373199964539614  0.8884989527613458  0.6667270312481263  1.0000
  C   C33       1.0  0.8977491888469432  0.6067353805396232  0.5957197533423735  1.0000
  C   C34       1.0  0.6022508113384442  0.10673538018226658  0.40428024681847324  1.0000
  C   C35       1.0  0.10225081122581846  0.3932646196338039  0.4042802470136998  1.0000
  C   C36       1.0  0.3977491887343176  0.8932646194498742  0.5957197535376  1.0000
  C   C37       1.0  0.11748620828142523  0.3412168950427282  0.4862026383810745  1.0000
  C   C38       1.0  0.38251379167871075  0.8412168954000848  0.5137973621702252  1.0000
  C   C39       1.0  0.8825137917913365  0.6587831045894127  0.5137973619749987  1.0000
  C   C40       1.0  0.617486208394051  0.1587831047733423  0.486202638185848  1.0000
  C   C41       1.0  0.16879828677305708  0.21959075096161387  0.6733539613018059  1.0000
  C   C42       1.0  0.3312017135083942  0.7195907507776843  0.3266460384352629  1.0000
  C   C43       1.0  0.8312017128945313  0.7804092492118131  0.32664603822679744  1.0000
  C   C44       1.0  0.6687982868856828  0.28040924885445656  0.6733539611065794  1.0000
  C   C45       1.0  0.21333012684274294  0.12035858617595013  0.5950215899296066  1.0000
  C   C46       1.0  0.2866698727122197  0.6203585859920205  0.4049784097942233  1.0000
  C   C47       1.0  0.7866698728248455  0.8796414139974769  0.4049784095989968  1.0000
  C   C48       1.0  0.7133301273605419  0.3796414136401203  0.5950215905618499  1.0000
  C   C49       1.0  0.22515408828133562  0.10520043071204956  0.4953381189963344  1.0000
  C   C50       1.0  0.27484591200011566  0.60520043052812  0.5046618807407345  1.0000
  C   C51       1.0  0.7748459113862527  0.8947995694613775  0.504661880532269  1.0000
  C   C52       1.0  0.7251540883939613  0.394799569645307  0.4953381188011079  1.0000
  C   C53       1.0  0.08678272573288  0.2852799504949455  0.8219170760178922  1.0000
  C   C54       1.0  0.41321727495374455  0.7852799503110159  0.17808292454664637  1.0000
  C   C55       1.0  0.9132172743398816  0.7147200496784816  0.17808292433818093  1.0000
  C   C56       1.0  0.5867827258455058  0.21472004932112496  0.8219170758226656  1.0000
  C   C57       1.0  0.00010445205101958883  0.23788552429578846  0.8037665531190845  1.0000
  C   C58       1.0  0.49989554823043164  0.7378855241118589  0.19623344661798436  1.0000
  C   C59       1.0  0.9998955476165687  0.7621144758776386  0.19623344640951892  1.0000
  C   C60       1.0  0.5001044521636453  0.2621144760615681  0.8037665529238579  1.0000
  C   C61       1.0  0.992712301701919  0.2069743436871372  0.8907475897077879  1.0000
  C   C62       1.0  0.5072876973518063  0.7069743440444939  0.10925240961235018  1.0000
  C   C63       1.0  0.007287697965669274  0.7930256559450036  0.10925240982081562  1.0000
  C   C64       1.0  0.492712302315782  0.2930256561289332  0.8907475899162532  1.0000
  C   C65       1.0  0.07352076189407547  0.22395696850507119  0.9989086607353486  1.0000
  C   C66       1.0  0.4264792376608871  0.7239569683211416  0.0010913389884813825  1.0000
  C   C67       1.0  0.9264792377735127  0.7760430316683559  0.0010913387932548705  1.0000
  C   C68       1.0  0.5735207624118747  0.2760430313109993  0.9989086613675918  1.0000
  C   C69       1.0  0.16097590889966454  0.27060945974379197  0.02075495466285596  1.0000
  C   C70       1.0  0.3390240913817867  0.7706094595598625  0.979245045074213  1.0000
  C   C71       1.0  0.8390240918995857  0.729390540429635  0.9792450457064562  1.0000
  C   C72       1.0  0.6609759082858017  0.22939054007227844  0.02075495445439052  1.0000
  C   C73       1.0  0.166780369826208  0.30039973580811136  0.9320658173521257  1.0000
  C   C74       1.0  0.33321962972875463  0.8003997356241818  0.06793418237170437  1.0000
  C   C75       1.0  0.8332196298413804  0.6996002643653156  0.06793418217647787  1.0000
  C   C76       1.0  0.6667803703440072  0.1996002640079591  0.9320658179843689  1.0000
  C   C77       1.0  0.8467363961919134  0.5313481748004475  0.8121162047478172  1.0000
  C   C78       1.0  0.653263603993474  0.031348174984377  0.18788379541302952  1.0000
  C   C79       1.0  0.1532636038808483  0.46865182537297956  0.18788379560825602  1.0000
  C   C80       1.0  0.3467363960792877  0.96865182518905  0.8121162049430438  1.0000
  C   C81       1.0  0.8489672434822308  0.44763500847226284  0.9430453257603321  1.0000
  C   C82       1.0  0.6510327567031566  0.9476350088296194  0.05695467440051469  1.0000
  C   C83       1.0  0.15103275659053086  0.552364991159878  0.0569546745957412  1.0000
  C   C84       1.0  0.3489672429644318  0.05236499134380758  0.9430453251280888  1.0000
  C   C85       1.0  0.9066347938954669  0.3780788688611075  0.9988627436951343  1.0000
  C   C86       1.0  0.5933652058847473  0.8780788686771779  0.0011372556382426822  1.0000
  C   C87       1.0  0.09336520649861026  0.6219211313123195  0.001137255846708119  1.0000
  C   C88       1.0  0.40663479378284106  0.1219211314962491  0.9988627438903608  1.0000
  C   C89       1.0  0.7845760749699431  0.6717798200484137  0.6663236419106255  1.0000
  C   C90       1.0  0.7154239252154444  0.17177981969105716  0.33367635825022113  1.0000
  C   C91       1.0  0.21542392510281858  0.3282201801250133  0.33367635844544763  1.0000
  C   C92       1.0  0.2845760744521441  0.8282201799410838  0.6663236412783824  1.0000
  C   C93       1.0  0.6685483679245549  0.6646247138889033  0.6191057848926813  1.0000
  C   C94       1.0  0.8314516322608327  0.16462471353154673  0.3808942152681654  1.0000
  C   C95       1.0  0.33145163214820694  0.3353752862845237  0.38089421546339197  1.0000
  C   C96       1.0  0.16854836740675566  0.8353752861005942  0.619105784260438  1.0000
  C   C97       1.0  0.6024347469383579  0.7201691058183476  0.621787122282485  1.0000
  C   C98       1.0  0.8975652532470296  0.2201691060022772  0.3782128778783617  1.0000
  C   C99       1.0  0.3975652527292306  0.27983089435507935  0.37821287724611846  1.0000
  C   C100      1.0  0.10243474682573205  0.7798308941711498  0.6217871224777115  1.0000
  C   C101      1.0  0.6519512971090863  0.7857456458431252  0.6717376035215457  1.0000
  C   C102      1.0  0.8480487030763012  0.2857456454857686  0.32826239663930096  1.0000
  C   C103      1.0  0.348048702558502  0.21425435433030182  0.3282623960070577  1.0000
  C   C104      1.0  0.15195129699646057  0.7142543541463723  0.6717376037167723  1.0000
  C   C105      1.0  0.7654695450531862  0.7963898575736033  0.7155180808290995  1.0000
  C   C106      1.0  0.7345304547270279  0.29638985775753274  0.2844819185042774  1.0000
  C   C107      1.0  0.2345304546144022  0.20361014259982388  0.2844819186995039  1.0000
  C   C108      1.0  0.26546954566704906  0.7036101424158943  0.7155180810375649  1.0000
  C   C109      1.0  0.8302329546558526  0.7396873622923031  0.7123462022308205  1.0000
  C   C110      1.0  0.6697670455295348  0.23968736247623265  0.2876537979300262  1.0000
  C   C111      1.0  0.16976704541690915  0.26031263788112396  0.28765379812525277  1.0000
  C   C112      1.0  0.33023295413805354  0.7603126376971944  0.7123462015985772  1.0000
  C   C113      1.0  0.36055813600937375  0.5253943433516054  0.8384766268347277  1.0000
  C   C114      1.0  0.13944186427207755  0.02539434353553493  0.16152337290234128  1.0000
  C   C115      1.0  0.639441864063388  0.4746056568218216  0.1615233735213456  1.0000
  C   C116      1.0  0.860558135395511  0.9746056566378921  0.8384766266262622  1.0000
  C   C117      1.0  0.4694963821813835  0.5497071100287281  0.8798770930789832  1.0000
  C   C118      1.0  0.030503618505241154  0.049707110212657585  0.12012290748555547  1.0000
  C   C119      1.0  0.5305036178913782  0.450292890144699  0.12012290727709003  1.0000
  C   C120      1.0  0.9694963822940091  0.9502928899607694  0.8798770928837566  1.0000
  C   C121      1.0  0.5274840504762264  0.5296285525720833  0.8261495547454833  1.0000
  C   C122      1.0  0.9725159497091611  0.029628552756012887  0.17385044541536335  1.0000
  C   C123      1.0  0.47251594959653537  0.4703714476013437  0.17385044561058988  1.0000
  C   C124      1.0  0.0274840499584273  0.9703714474174141  0.8261495541132401  1.0000
  C   C125      1.0  0.4769159782412723  0.4851017742877578  0.7329038232612625  1.0000
  C   C126      1.0  0.023084021313690292  0.9851017741038283  0.26709617646256745  1.0000
  C   C127      1.0  0.523084021426316  0.5148982258856692  0.26709617626734095  1.0000
  C   C128      1.0  0.9769159783538981  0.01489822606959873  0.7329038230660361  1.0000
  C   C129      1.0  0.3677759833609423  0.4613477794599739  0.69239038681677  1.0000
  C   C130      1.0  0.13222401619402033  0.9613477798173304  0.30760961290705996  1.0000
  C   C131      1.0  0.6322240163066459  0.538652220172167  0.3076096127118334  1.0000
  C   C132      1.0  0.8677759834735681  0.03865222035609656  0.6923903866215435  1.0000
  C   C133      1.0  0.308738922006234  0.4812581852940919  0.7448166339934565  1.0000
  C   C134      1.0  0.19126107868039063  0.9812581851101623  0.25518336657108215  1.0000
  C   C135      1.0  0.6912610780665277  0.5187418148793351  0.25518336636261674  1.0000
  C   C136      1.0  0.8087389221188598  0.018741814521978525  0.7448166337982299  1.0000
  N   N1        1.0  0.036509643060831265  0.4037177735948059  0.5866215417490012  1.0000
  N   N2        1.0  0.4634903572206201  0.9037177734108763  0.41337845798806777  1.0000
  N   N3        1.0  0.9634903566067571  0.5962822265786211  0.41337845777960236  1.0000
  N   N4        1.0  0.5365096428521416  0.09628222622126455  0.5866215423680055  1.0000
  N   N5        1.0  0.9518358702423702  0.5407957993582452  0.6168946902946854  1.0000
  N   N6        1.0  0.5481641292165287  0.04079579954217471  0.3831053098529224  1.0000
  N   N7        1.0  0.04816412983039159  0.4592042008151819  0.3831053100613878  1.0000
  N   N8        1.0  0.45183587085623295  0.9592042006312523  0.6168946905031507  1.0000
  O   O1        1.0  0.16518951028346388  0.1923986873506017  0.5813124642450062  1.0000
  O   O2        1.0  0.33481048927149876  0.6923986871666722  0.41868753547882387  1.0000
  O   O3        1.0  0.8348104897892978  0.8076013128228253  0.4186875361110671  1.0000
  O   O4        1.0  0.6651895103960895  0.3076013124654688  0.5813124640497797  1.0000
  O   O5        1.0  0.20675677414669003  0.18607896920391162  0.7605608739192657  1.0000
  O   O6        1.0  0.2932432254082726  0.6860789690199821  0.23943912580456408  1.0000
  O   O7        1.0  0.7932432255208984  0.8139210309695154  0.23943912560933756  1.0000
  O   O8        1.0  0.706756774664489  0.3139210306121588  0.760560874551509  1.0000
  O   O9        1.0  0.8863479841798049  0.46752832806802835  0.8655233973466335  1.0000
  O   O10       1.0  0.6136520160055826  0.9675283278840988  0.1344766028142132  1.0000
  O   O11       1.0  0.11365201589295686  0.5324716721053987  0.13447660300943973  1.0000
  O   O12       1.0  0.38634798406717924  0.03247167228932817  0.86552339754186  1.0000
  O   O13       1.0  0.7864498859872705  0.5714296839480205  0.8294639159873516  1.0000
  O   O14       1.0  0.7135501141981171  0.07142968413195017  0.1705360841734951  1.0000
  O   O15       1.0  0.21355011408549127  0.4285703162254064  0.17053608436872164  1.0000
  O   O16       1.0  0.28644988546947137  0.9285703160414769  0.8294639153551083  1.0000
  Cl  Cl1       1.0  0.8986288484120841  0.21885821435245792  0.6687160611634512  1.0000
  Cl  Cl2       1.0  0.6013711517733032  0.7188582141685284  0.3312839389973956  1.0000
  Cl  Cl3       1.0  0.10137115198199285  0.781141785820969  0.3312839383783912  1.0000
  Cl  Cl4       1.0  0.39862884829945844  0.28114178600489864  0.6687160613586776  1.0000
  Cl  Cl5       1.0  0.27477520644993886  0.35834328545992783  0.957669634037852  1.0000
  Cl  Cl6       1.0  0.22522479383151242  0.8583432858172844  0.04233036569921691  1.0000
  Cl  Cl7       1.0  0.7252247943493115  0.641656714172213  0.04233036633146015  1.0000
  Cl  Cl8       1.0  0.7747752058360761  0.14165671435614263  0.9576696338293866  1.0000
  Cl  Cl9       1.0  0.6046045811911235  0.5840469383353092  0.5546964282637862  1.0000
  Cl  Cl10      1.0  0.8953954189942639  0.08404693851923878  0.4453035718970605  1.0000
  Cl  Cl11      1.0  0.39539541920295346  0.4159530618381178  0.4453035712780562  1.0000
  Cl  Cl12      1.0  0.10460458107849781  0.9159530616541882  0.5546964284590127  1.0000
  Cl  Cl13      1.0  0.9717653691353171  0.7544568900036797  0.7696024426697261  1.0000
  Cl  Cl14      1.0  0.5282346310500704  0.25445688964632307  0.23039755749112062  1.0000
  Cl  Cl15      1.0  0.028234630937444737  0.24554311016974736  0.23039755768634712  1.0000
  Cl  Cl16      1.0  0.47176536861751794  0.7455431099858179  0.7696024420374828  1.0000
  Cl  Cl17      1.0  0.28597447568472734  0.5519145939979948  0.9020370250292559  1.0000
  Cl  Cl18      1.0  0.21402552387023532  0.05191459364063824  0.09796297469457409  1.0000
  Cl  Cl19      1.0  0.7140255243880343  0.44808540617543224  0.0979629753268173  1.0000
  Cl  Cl20      1.0  0.785974475797353  0.9480854059915027  0.9020370248340293  1.0000
