data_image0
_chemical_formula_structural       H36C48N20O16
_chemical_formula_sum              "H36 C48 N20 O16"
_cell_length_a       8.15414377371224
_cell_length_b       11.34817213029669
_cell_length_c       13.537507873556693
_cell_angle_alpha    75.07548710004873
_cell_angle_beta     85.10897363218879
_cell_angle_gamma    88.09238126579959

_space_group_name_H-M_alt    "P 1"
_space_group_IT_number       1

loop_
  _space_group_symop_operation_xyz
  'x, y, z'

loop_
  _atom_site_type_symbol
  _atom_site_label
  _atom_site_symmetry_multiplicity
  _atom_site_fract_x
  _atom_site_fract_y
  _atom_site_fract_z
  _atom_site_occupancy
  H   H1        1.0  0.07908590006780014  0.9529839627177003  0.7693900535003786  1.0000
  H   H2        1.0  0.9209141004961622  0.04701603723884987  0.23060994660573236  1.0000
  H   H3        1.0  0.5170055151514235  0.7075891136471805  0.7796902472303356  1.0000
  H   H4        1.0  0.4829944853977008  0.2924108872213958  0.22030975268013286  1.0000
  H   H5        1.0  0.6343163434399712  0.6085858805815295  0.6414660224589491  1.0000
  H   H6        1.0  0.3656836571239911  0.3914141193750206  0.3585339776471619  1.0000
  H   H7        1.0  0.40417780681295085  0.871273305477696  0.4231045809641897  1.0000
  H   H8        1.0  0.595822192523616  0.1287266944792091  0.576895418464118  1.0000
  H   H9        1.0  0.9831974231531456  0.37304713263562733  0.4654388987152894  1.0000
  H   H10       1.0  0.016802577410816723  0.6269528673209228  0.5345611013908217  1.0000
  H   H11       1.0  0.597849234130204  0.409518520149266  0.6781201158539307  1.0000
  H   H12       1.0  0.40215076643375824  0.590481479807284  0.3218798842521803  1.0000
  H   H13       1.0  0.6664421085287363  0.20538368507417687  0.7886577754898692  1.0000
  H   H14       1.0  0.33355789203867386  0.7946163148829878  0.21134222387724674  1.0000
  H   H15       1.0  0.43287091282582146  0.19677678768492682  0.8705345536628946  1.0000
  H   H16       1.0  0.5671290877381407  0.8032232122716234  0.12946544644321642  1.0000
  H   H17       1.0  0.2629437687176544  0.005803159374377516  0.1640226264755693  1.0000
  H   H18       1.0  0.7370562306154648  0.994196840581913  0.8359773736917335  1.0000
  H   H19       1.0  0.10661729760623179  0.8653513279135563  0.08952234479561463  1.0000
  H   H20       1.0  0.8933827017268872  0.13464867204273448  0.910477655371688  1.0000
  H   H21       1.0  0.07900290136094111  0.24132355180379275  0.3598074478165052  1.0000
  H   H22       1.0  0.9209970979721779  0.7586764481524978  0.6401925523507976  1.0000
  H   H23       1.0  0.24829483430242935  0.4176535597654029  0.6846043587535637  1.0000
  H   H24       1.0  0.7517051650306896  0.5823464401908875  0.315395641413739  1.0000
  H   H25       1.0  0.5257747763716941  0.7885201233772863  0.9530145070508992  1.0000
  H   H26       1.0  0.4742252229614249  0.2114798765790043  0.046985493116403605  1.0000
  H   H27       1.0  0.0466624491099312  0.2595225539993436  0.019731996001135534  1.0000
  H   H28       1.0  0.9533375514540311  0.7404774459572065  0.9802680041049754  1.0000
  H   H29       1.0  0.31904394123657226  0.5790981618375315  0.8577539847138064  1.0000
  H   H30       1.0  0.6809560580965468  0.42090183811875903  0.14224601545349644  1.0000
  H   H31       1.0  0.24606900884319766  0.49108507671308976  0.18625730218909048  1.0000
  H   H32       1.0  0.7539309904899214  0.5089149232432006  0.8137426979782123  1.0000
  H   H33       1.0  0.3484819355867431  0.3361005280929982  0.5614755594819493  1.0000
  H   H34       1.0  0.6515180649772192  0.6638994718635519  0.4385244406241618  1.0000
  H   H35       1.0  0.25227368782605153  0.4638139947883396  0.525930271438496  1.0000
  H   H36       1.0  0.7477263127413586  0.536186005168825  0.47406972792861996  1.0000
  C   C1        1.0  0.48859012456473955  0.7427431726633954  0.7000958014020844  1.0000
  C   C2        1.0  0.5114098759992227  0.25725682729315463  0.2999041987040266  1.0000
  C   C3        1.0  0.5532785725976872  0.6882710373865649  0.6237030376776611  1.0000
  C   C4        1.0  0.44672142673543175  0.3117289625697256  0.37629696248964173  1.0000
  C   C5        1.0  0.42538528108800133  0.8325723515552744  0.5034175180147867  1.0000
  C   C6        1.0  0.574614719475961  0.16742764840127575  0.4965824820913243  1.0000
  C   C7        1.0  0.3568318829147091  0.885245653961876  0.5812505191086719  1.0000
  C   C8        1.0  0.6431681176527011  0.11475434599528858  0.4187494802584441  1.0000
  C   C9        1.0  0.2475836155412346  0.9913477155155944  0.5549417576480252  1.0000
  C   C10       1.0  0.7524163837953325  0.00865228444131068  0.4450582417802825  1.0000
  C   C11       1.0  0.06698122450914668  0.1381637248998154  0.5622036486021914  1.0000
  C   C12       1.0  0.9330187748125822  0.861836275969116  0.4377963506304738  1.0000
  C   C13       1.0  0.9428569374951279  0.21644152262493474  0.5979511505460534  1.0000
  C   C14       1.0  0.05714306183799114  0.7835584773313559  0.40204884962124937  1.0000
  C   C15       1.0  0.9104357113259746  0.3338207047831493  0.5371967749756257  1.0000
  C   C16       1.0  0.08956428923798772  0.6661792951734007  0.46280322513048533  1.0000
  C   C17       1.0  0.7001437828610109  0.35580284015447095  0.6547894490534516  1.0000
  C   C18       1.0  0.29985621770295146  0.6441971598020791  0.34521055105265946  1.0000
  C   C19       1.0  0.7373029975860591  0.24062204785531877  0.7160388260194264  1.0000
  C   C20       1.0  0.26269700174706  0.7593779521009718  0.2839611741478764  1.0000
  C   C21       1.0  0.27906364579665865  0.07126215313956544  0.763995147567076  1.0000
  C   C22       1.0  0.7209363547673036  0.9287378468169846  0.23600485253903508  1.0000
  C   C23       1.0  0.2720479230861945  0.044741978848831944  0.8786053361247366  1.0000
  C   C24       1.0  0.7279520774777676  0.9552580211077182  0.12139466398137447  1.0000
  C   C25       1.0  0.36153235660262084  0.12126313749535816  0.9193225465671626  1.0000
  C   C26       1.0  0.638467642730498  0.8787368624609322  0.08067745360014016  1.0000
  C   C27       1.0  0.2685382079142598  0.016304685699194167  0.08145434663046269  1.0000
  C   C28       1.0  0.7314617926497025  0.9836953142573558  0.9185456534756483  1.0000
  C   C29       1.0  0.18037268148035013  0.9393742542380582  0.03980113854591829  1.0000
  C   C30       1.0  0.8196273190836121  0.06062574571849175  0.9601988615601926  1.0000
  C   C31       1.0  0.13883496844520377  0.3658534351018577  0.11378593641864432  1.0000
  C   C32       1.0  0.8611650308765252  0.6341465657670736  0.8862140628140207  1.0000
  C   C33       1.0  0.11383727969753646  0.3407379270436106  0.020169224756512217  1.0000
  C   C34       1.0  0.8861627196355827  0.6592620729126799  0.9798307754107904  1.0000
  C   C35       1.0  0.17769065595306596  0.4176979384369399  0.9279960439125282  1.0000
  C   C36       1.0  0.822309343380053  0.5823020615193506  0.07200395625477458  1.0000
  C   C37       1.0  0.26691612095031014  0.5205687396119236  0.92944328807517  1.0000
  C   C38       1.0  0.7330838783828089  0.4794312603443671  0.07055671209213274  1.0000
  C   C39       1.0  0.2908954156591044  0.5464467538642769  0.022550549876434896  1.0000
  C   C40       1.0  0.709104584904858  0.4535532460922731  0.9774494502296761  1.0000
  C   C41       1.0  0.2252841855648811  0.46953095461324906  0.11460492378536119  1.0000
  C   C42       1.0  0.7747158149990812  0.5304690453433011  0.8853950763207499  1.0000
  C   C43       1.0  0.08606979891314885  0.27460938899678095  0.2107084243689883  1.0000
  C   C44       1.0  0.913930200423418  0.7253906109601241  0.7892915750593194  1.0000
  C   C45       1.0  0.15758291547361228  0.3835888425217745  0.8298397597616286  1.0000
  C   C46       1.0  0.8424170850903501  0.6164111574347756  0.17016024034448232  1.0000
  C   C47       1.0  0.39264776842688415  0.6496436838997611  0.030401626719187357  1.0000
  C   C48       1.0  0.607352232140526  0.35035631605740347  0.9695983726479287  1.0000
  N   N1        1.0  0.3894552030111429  0.8405748152655296  0.6796709029124902  1.0000
  N   N2        1.0  0.6105447963219761  0.15942518469076095  0.3203290972548127  1.0000
  N   N3        1.0  0.5223939947909411  0.7336452045665057  0.5253919676402027  1.0000
  N   N4        1.0  0.4776060045421779  0.2663547953897849  0.4746080325271  1.0000
  N   N5        1.0  0.2193139275816132  0.049771408638083  0.45946823520528657  1.0000
  N   N6        1.0  0.7806860717515057  0.9502285913182075  0.5405317649620162  1.0000
  N   N7        1.0  0.10742826202849816  0.14071179347725002  0.46454137354911235  1.0000
  N   N8        1.0  0.8925717373080687  0.859288206479655  0.5354586258791953  1.0000
  N   N9        1.0  0.15281169084549018  0.04425641645515073  0.622241470532983  1.0000
  N   N10       1.0  0.8471883097184723  0.9557435835013992  0.3777585295731281  1.0000
  N   N11       1.0  0.1558803382942285  0.021261909874137546  0.7267896297289878  1.0000
  N   N12       1.0  0.8441196610388905  0.9787380900821532  0.273210370438315  1.0000
  N   N13       1.0  0.8564926417731251  0.16989337615987293  0.6879101951444452  1.0000
  N   N14       1.0  0.14350735877599916  0.8301066247087034  0.31208980476602327  1.0000
  N   N15       1.0  0.7876937449601057  0.4023174146529304  0.5655802045795534  1.0000
  N   N16       1.0  0.21230625560385663  0.5976825853036197  0.4344197955265577  1.0000
  N   N17       1.0  0.18038958061457896  0.9538342967271534  0.9382592211078647  1.0000
  N   N18       1.0  0.8196104199528311  0.04616570323001127  0.06174077825925122  1.0000
  N   N19       1.0  0.35935380435008213  0.10748739446204325  0.020646864622646387  1.0000
  N   N20       1.0  0.6406461962138801  0.8925126054945067  0.9793531354834646  1.0000
  O   O1        1.0  0.3859625464161223  0.13751487161519943  0.7088741227626425  1.0000
  O   O2        1.0  0.6140374541478398  0.8624851283413506  0.2911258773434685  1.0000
  O   O3        1.0  0.08657965089968112  0.3144214773225359  0.29492121069430455  1.0000
  O   O4        1.0  0.9134203484334379  0.6855785226337546  0.7050787894729982  1.0000
  O   O5        1.0  0.052052997347180004  0.16904959046811704  0.21166461330540154  1.0000
  O   O6        1.0  0.9479470019859391  0.8309504094881736  0.7883353868619013  1.0000
  O   O7        1.0  0.06675297494719463  0.30020334953626404  0.8259969449760324  1.0000
  O   O8        1.0  0.9332470243859244  0.6997966504200265  0.17400305519127032  1.0000
  O   O9        1.0  0.25019974484819785  0.44949253025085084  0.7507911118726224  1.0000
  O   O10       1.0  0.7498002544849213  0.5505074697054397  0.24920888829468038  1.0000
  O   O11       1.0  0.4526184014386254  0.720997285154193  0.9411768415745769  1.0000
  O   O12       1.0  0.5473815991253368  0.27900271480235705  0.05882315853153424  1.0000
  O   O13       1.0  0.4197769734799667  0.6641762669820869  0.11473866789662705  1.0000
  O   O14       1.0  0.5802230258531523  0.33582373297420365  0.8852613322706757  1.0000
  O   O15       1.0  0.26019878834419075  0.38873983570290266  0.5838983082188898  1.0000
  O   O16       1.0  0.7398012122197716  0.6112601642536474  0.4161016918872213  1.0000
