data_image0
_chemical_formula_structural       H32C46N2O8Cl2
_chemical_formula_sum              "H32 C46 N2 O8 Cl2"
_cell_length_a       7.593859323386753
_cell_length_b       10.300994057615066
_cell_length_c       12.773903939675447
_cell_angle_alpha    106.17035716128413
_cell_angle_beta     97.4904555572182
_cell_angle_gamma    97.62577248300944

_space_group_name_H-M_alt    "P 1"
_space_group_IT_number       1

loop_
  _space_group_symop_operation_xyz
  'x, y, z'

loop_
  _atom_site_type_symbol
  _atom_site_label
  _atom_site_symmetry_multiplicity
  _atom_site_fract_x
  _atom_site_fract_y
  _atom_site_fract_z
  _atom_site_occupancy
  H   H1        1.0  0.9291016677322181  0.8689761085881809  0.01602573639414968  1.0000
  H   H2        1.0  0.07089833333149678  0.13102389166081047  0.9839742634006137  1.0000
  H   H3        1.0  0.9833634089153444  0.8590201031354737  0.8250646317462941  1.0000
  H   H4        1.0  0.016636591083216013  0.1409798973575666  0.17493536888888872  1.0000
  H   H5        1.0  0.7246979706712172  0.8424716033770346  0.6784427298944874  1.0000
  H   H6        1.0  0.2753020293273431  0.15752839711600572  0.32155727074069546  1.0000
  H   H7        1.0  0.17513376654978713  0.3874486068747689  0.4298777804699945  1.0000
  H   H8        1.0  0.8248662331983793  0.6125513933626048  0.5701222193385457  1.0000
  H   H9        1.0  0.9396078677590282  0.35742341503260977  0.26664678212622994  1.0000
  H   H10       1.0  0.06039213313707622  0.6425765842217052  0.7333532176235071  1.0000
  H   H11       1.0  0.32583093371548316  0.062075986128387654  0.550089146823224  1.0000
  H   H12       1.0  0.6741690660326832  0.9379240141089861  0.44991085298531613  1.0000
  H   H13       1.0  0.08637020575839122  0.05116542809973373  0.3918445397698155  1.0000
  H   H14       1.0  0.9136297939897754  0.94883457213764  0.6081554600387247  1.0000
  H   H15       1.0  0.8643627603758598  0.5656144022073647  0.21847008778576682  1.0000
  H   H16       1.0  0.1356372393723066  0.434385598030009  0.7815299120227732  1.0000
  H   H17       1.0  0.3617347938325995  0.8503608823911682  0.9100352338873327  1.0000
  H   H18       1.0  0.638265205915567  0.14963911784620537  0.08996476592120743  1.0000
  H   H19       1.0  0.617623739262093  0.8629023159666043  0.05762100511811233  1.0000
  H   H20       1.0  0.38237626073646713  0.13709768452643606  0.9423789955170704  1.0000
  H   H21       1.0  0.5586768439916501  0.15887414347334183  0.7123438334600629  1.0000
  H   H22       1.0  0.4413231569044544  0.8411258557809731  0.2876561662896743  1.0000
  H   H23       1.0  0.7436429064883288  0.12374644104296403  0.873942991967101  1.0000
  H   H24       1.0  0.25635709309222715  0.8762535581997334  0.12605700779641268  1.0000
  H   H25       1.0  0.8762935246132662  0.3236287848239929  0.04034322056138226  1.0000
  H   H26       1.0  0.12370647538529429  0.6763712156690476  0.9596567800738005  1.0000
  H   H27       1.0  0.8108215768125686  0.5565048032673325  0.04760372824243115  1.0000
  H   H28       1.0  0.1891784231859917  0.44349519722570774  0.9523962723927516  1.0000
  H   H29       1.0  0.6205332914442969  0.58926994545399  0.8855201939382631  1.0000
  H   H30       1.0  0.3794667083866529  0.4107300540443738  0.11447980665189339  1.0000
  H   H31       1.0  0.382935605778997  0.3334183774735033  0.5427722373799635  1.0000
  H   H32       1.0  0.6170643939691695  0.6665816227638705  0.4572277624285766  1.0000
  C   C1        1.0  0.8169077919236104  0.8618363505114809  0.9509235805860212  1.0000
  C   C2        1.0  0.18309220782455612  0.13816364972589273  0.0490764192225187  1.0000
  C   C3        1.0  0.8475361335544676  0.8559156861765762  0.8442324980815298  1.0000
  C   C4        1.0  0.15246386750924742  0.144084314072415  0.15576750171323353  1.0000
  C   C5        1.0  0.7031484067115741  0.8474311891446608  0.7617863867196193  1.0000
  C   C6        1.0  0.2968515930365925  0.15256881109271306  0.23821361308892078  1.0000
  C   C7        1.0  0.5280419943419999  0.8464885265363513  0.7857140280129602  1.0000
  C   C8        1.0  0.4719580056565604  0.15351147395668902  0.21428597262222263  1.0000
  C   C9        1.0  0.3712569907437412  0.842597454158316  0.702039531960309  1.0000
  C   C10       1.0  0.6287430092548192  0.1574025463347243  0.29796046867487375  1.0000
  C   C11       1.0  0.2842605011291329  0.8441235656455578  0.5179469753037094  1.0000
  C   C12       1.0  0.7157394986190335  0.155876434591816  0.4820530245048308  1.0000
  C   C13       1.0  0.18941992859401763  0.7128963721200042  0.4500737707637185  1.0000
  C   C14       1.0  0.8105800709865382  0.28710362712269316  0.5499262289997953  1.0000
  C   C15       1.0  0.14180642117942288  0.4781510764465072  0.40848262435894767  1.0000
  C   C16       1.0  0.858193578401133  0.5218489227961901  0.5915173754045661  1.0000
  C   C17       1.0  0.00893268406104675  0.4602191406181028  0.31491225949542445  1.0000
  C   C18       1.0  0.9910673159375135  0.5397808598749375  0.6850877411397585  1.0000
  C   C19       1.0  0.2512034210366947  0.9630195108207847  0.4967897218942614  1.0000
  C   C20       1.0  0.7487965785438612  0.03698048842191273  0.5032102778692524  1.0000
  C   C21       1.0  0.11818116107202425  0.9571114648105989  0.40659237956685274  1.0000
  C   C22       1.0  0.8818188386761422  0.042888535426774774  0.5934076202416874  1.0000
  C   C23       1.0  0.024127970427844776  0.8320457896337774  0.33847215952067816  1.0000
  C   C24       1.0  0.9758720295707155  0.16795421085926293  0.6615278411145047  1.0000
  C   C25       1.0  0.05642608682104691  0.7067861370591964  0.3571229470652724  1.0000
  C   C26       1.0  0.9435739130099028  0.2932138624391675  0.642877053524884  1.0000
  C   C27       1.0  0.966965555985589  0.5749436581807851  0.2894268579473127  1.0000
  C   C28       1.0  0.03303444491051552  0.42505634107352996  0.7105731418024243  1.0000
  C   C29       1.0  0.49824672291782385  0.8513435757257404  0.8925477089553477  1.0000
  C   C30       1.0  0.5017532768303427  0.14865642451163347  0.1074522908531924  1.0000
  C   C31       1.0  0.6422601927571062  0.8588255871257993  0.9747558778404602  1.0000
  C   C32       1.0  0.3577398069910602  0.14117441311157447  0.025244121968079753  1.0000
  C   C33       1.0  0.4795936824530313  0.40858547940067746  0.6947330782231751  1.0000
  C   C34       1.0  0.520406317545529  0.5914145210923628  0.3052669224120076  1.0000
  C   C35       1.0  0.5783764185752402  0.3769548519035563  0.7899913326574957  1.0000
  C   C36       1.0  0.42162358100531566  0.623045147339141  0.21000866710601818  1.0000
  C   C37       1.0  0.6117142090911903  0.245165493538392  0.7864051118754982  1.0000
  C   C38       1.0  0.3882857919725248  0.7548345067105995  0.21359488791926529  1.0000
  C   C39       1.0  0.7169510622607742  0.2260001406091991  0.8770121277785032  1.0000
  C   C40       1.0  0.2830489374873922  0.7739998596281745  0.1229878720300368  1.0000
  C   C41       1.0  0.789957082326072  0.33788646346828083  0.9706087334424626  1.0000
  C   C42       1.0  0.2100429174220944  0.6621135367690929  0.029391266366077515  1.0000
  C   C43       1.0  0.7543607790797944  0.46881297571859554  0.9749033041296984  1.0000
  C   C44       1.0  0.24563922198392066  0.5311870245303959  0.025096695665065016  1.0000
  C   C45       1.0  0.6483775719529422  0.4881375958021237  0.88504584793826  1.0000
  C   C46       1.0  0.35162242779522407  0.51186240443525  0.11495415187028019  1.0000
  N   N1        1.0  0.2301555990846973  0.5986013925606314  0.4740065221908323  1.0000
  N   N2        1.0  0.7698444022294115  0.40139860794402654  0.5259934784305738  1.0000
  O   O1        1.0  0.42190132601367275  0.8516096027965233  0.6044730865416831  1.0000
  O   O2        1.0  0.5780986735668832  0.14839039644617402  0.39552691322183064  1.0000
  O   O3        1.0  0.21501881765901623  0.8375708545032456  0.7169488239994958  1.0000
  O   O4        1.0  0.7849811832370882  0.1624291447510694  0.28305117575024125  1.0000
  O   O5        1.0  0.4206454627631609  0.29655972718570767  0.603432935548091  1.0000
  O   O6        1.0  0.5793545369850055  0.703440273051666  0.39656706426044913  1.0000
  O   O7        1.0  0.45496256695085163  0.5233056954328014  0.6943213544108078  1.0000
  O   O8        1.0  0.5450374327973149  0.4766943048045723  0.3056786453977323  1.0000
  Cl  Cl1       1.0  0.8639117484562818  0.8275222446701905  0.2272445190889383  1.0000
  Cl  Cl2       1.0  0.13608825129188473  0.17247775556718328  0.7727554807196018  1.0000
