data_image0
_chemical_formula_structural       H68C68N4O24S4
_chemical_formula_sum              "H68 C68 N4 O24 S4"
_cell_length_a       5.25027833698338
_cell_length_b       14.478468476843387
_cell_length_c       21.168318256868435
_cell_angle_alpha    90.0
_cell_angle_beta     94.680485374078
_cell_angle_gamma    90.0

_space_group_name_H-M_alt    "P 1"
_space_group_IT_number       1

loop_
  _space_group_symop_operation_xyz
  'x, y, z'

loop_
  _atom_site_type_symbol
  _atom_site_label
  _atom_site_symmetry_multiplicity
  _atom_site_fract_x
  _atom_site_fract_y
  _atom_site_fract_z
  _atom_site_occupancy
  H   H1        1.0  0.635231866927228  0.6241210418389576  0.4238177626462577  1.0000
  H   H2        1.0  0.8647681339331524  0.12412104242062776  0.0761822377725384  1.0000
  H   H3        1.0  0.36476813457339763  0.37587895768838275  0.576182237781216  1.0000
  H   H4        1.0  0.13523186565661396  0.8758789577973934  0.9238177626226485  1.0000
  H   H5        1.0  0.40942600427089776  0.6991488689698029  0.4602186452552955  1.0000
  H   H6        1.0  0.09057399455563873  0.19914886886079236  0.03978135468971251  1.0000
  H   H7        1.0  0.5905739952930343  0.3008511312482182  0.5397813546670075  1.0000
  H   H8        1.0  0.9094260050082934  0.800851130666548  0.9602186452325905  1.0000
  H   H9        1.0  0.5100996523417924  0.7251794488341566  0.3832949618908974  1.0000
  H   H10       1.0  0.9899003484927534  0.2251794494158269  0.11670503805501489  1.0000
  H   H11       1.0  0.48990034913299857  0.2748205506931837  0.6167050380636926  1.0000
  H   H12       1.0  0.010099651071178524  0.7748205508021941  0.8832949618672881  1.0000
  H   H13       1.0  0.05412248624688117  0.4653799613389098  0.4175372463630159  1.0000
  H   H14       1.0  0.4458775125796553  0.9653799614479204  0.0824627535819921  1.0000
  H   H15       1.0  0.9458775133170508  0.5346200381884305  0.5824627535592871  1.0000
  H   H16       1.0  0.5541224870101112  0.03462003807941999  0.9175372468131947  1.0000
  H   H17       1.0  0.16278132867617787  0.5450204503757304  0.47955766142479156  1.0000
  H   H18       1.0  0.3372186720612177  0.04502045026671993  0.02044233855250343  1.0000
  H   H19       1.0  0.8372186708877541  0.45497954984229066  0.5204423384975114  1.0000
  H   H20       1.0  0.6627813294135734  0.9549795499513012  0.9795576614020866  1.0000
  H   H21       1.0  0.39147385760051345  0.48015581559049436  0.43780936823816147  1.0000
  H   H22       1.0  0.10852614313688218  0.9801558156995049  0.06219063173913355  1.0000
  H   H23       1.0  0.608526141989253  0.5198441846275268  0.5621906321570254  1.0000
  H   H24       1.0  0.8914738583379092  0.019844184518516172  0.9378093682154565  1.0000
  H   H25       1.0  0.13862188578862786  0.4913178401000946  0.26962268796933375  1.0000
  H   H26       1.0  0.36137811494876776  0.9913178402091052  0.23037731200796124  1.0000
  H   H27       1.0  0.8613781156861634  0.5086821601179266  0.7303773119852562  1.0000
  H   H28       1.0  0.6386218846151643  0.008682160008915958  0.7696226879143419  1.0000
  H   H29       1.0  0.5769669839138721  0.5205902006869791  0.3206341266104918  1.0000
  H   H30       1.0  0.9230330169206739  0.02059020057796854  0.17936587333542053  1.0000
  H   H31       1.0  0.42303301756091904  0.4794097988403612  0.6793658733440983  1.0000
  H   H32       1.0  0.07696698264325817  0.9794097989493717  0.8206341265868826  1.0000
  H   H33       1.0  0.20621292844155983  0.9882922418821783  0.3437125504451037  1.0000
  H   H34       1.0  0.2937870722958358  0.48829224177316777  0.1562874495321913  1.0000
  H   H35       1.0  0.7937870711223721  0.011707758335842774  0.6562874494771993  1.0000
  H   H36       1.0  0.7062129272680963  0.5117077584448534  0.8437125503901118  1.0000
  H   H37       1.0  0.4687832635853315  0.10808724503582229  0.3152824201898002  1.0000
  H   H38       1.0  0.031216737152064078  0.6080872451448329  0.1847175797874948  1.0000
  H   H39       1.0  0.5312167378894597  0.8919127551821988  0.6847175797647899  1.0000
  H   H40       1.0  0.9687832624118681  0.39191275507318823  0.8152824201348082  1.0000
  H   H41       1.0  0.8080418521355729  0.1460827002098171  0.256729214021023  1.0000
  H   H42       1.0  0.691958148698973  0.6460827003188276  0.24327078592488935  1.0000
  H   H43       1.0  0.19195814933921818  0.8539173000082041  0.743270785933567  1.0000
  H   H44       1.0  0.30804185086495905  0.35391729989919346  0.7567292139974138  1.0000
  H   H45       1.0  0.11734563871073544  0.2597621755377795  0.21931204002475188  1.0000
  H   H46       1.0  0.3826543620266602  0.7597621756467902  0.28068795995254314  1.0000
  H   H47       1.0  0.8826543608531967  0.7402378239895608  0.7806879598975511  1.0000
  H   H48       1.0  0.6173456375372719  0.24023782457123102  0.7193120399697599  1.0000
  H   H49       1.0  0.45145933782360653  0.3650720425612579  0.3571688312204623  1.0000
  H   H50       1.0  0.04854066100292988  0.8650720426702684  0.14283116872454577  1.0000
  H   H51       1.0  0.5485406617403255  0.6349279576567632  0.6428311687018408  1.0000
  H   H52       1.0  0.9514593385610022  0.13492795754775266  0.8571688311977573  1.0000
  H   H53       1.0  0.9757826240534628  0.8463031818315255  0.3485939158240486  1.0000
  H   H54       1.0  0.5242173748702239  0.34630318172251495  0.15140608408957676  1.0000
  H   H55       1.0  0.02421737551046903  0.15369681838649563  0.6514060840982544  1.0000
  H   H56       1.0  0.4757826246937082  0.6536968184955062  0.8485939158327264  1.0000
  H   H57       1.0  0.6619097126080544  0.8525885572595653  0.37457287541762624  1.0000
  H   H58       1.0  0.8380902863156324  0.35258855715055476  0.1254271244959991  1.0000
  H   H59       1.0  0.3380902869558776  0.14741144295845582  0.6254271245046767  1.0000
  H   H60       1.0  0.16190971324829956  0.6474114430674663  0.8745728754263038  1.0000
  H   H61       1.0  0.9230470352420935  0.8223184295384632  0.42931641700400835  1.0000
  H   H62       1.0  0.5769529656182869  0.32231842942945266  0.07068358341478773  1.0000
  H   H63       1.0  0.07695296625853208  0.17768156998887716  0.5706835834234655  1.0000
  H   H64       1.0  0.4230470339714795  0.6776815700978878  0.9293164169803991  1.0000
  H   H65       1.0  0.6127864349481257  0.9595427812147231  0.46470004556627387  1.0000
  H   H66       1.0  0.8872135658864202  0.4595427811057125  0.03529995437963851  1.0000
  H   H67       1.0  0.38721356461580625  0.040457219003298045  0.5352999543560292  1.0000
  H   H68       1.0  0.11278643558837091  0.5404572191123086  0.9647000455749515  1.0000
  C   C1        1.0  0.46895229708503533  0.6697598130292143  0.41596085694988605  1.0000
  C   C2        1.0  0.031047703652360294  0.16975981292020367  0.08403914302740889  1.0000
  C   C3        1.0  0.5310477024788968  0.3302401871888069  0.584039142972417  1.0000
  C   C4        1.0  0.9689522978224309  0.8302401872978175  0.9159608569271811  1.0000
  C   C5        1.0  0.20404857687212574  0.5140281958622316  0.43426642361264367  1.0000
  C   C6        1.0  0.29595142386526985  0.014028196443901889  0.06573357636465131  1.0000
  C   C7        1.0  0.7959514226918064  0.4859718036651086  0.5657335763096594  1.0000
  C   C8        1.0  0.7040485776353558  0.9859718037741192  0.9342664240628225  1.0000
  C   C9        1.0  0.10533079196948976  0.11106596064161837  0.3968357676564922  1.0000
  C   C10       1.0  0.3946692087679058  0.611065960750629  0.10316423232080282  1.0000
  C   C11       1.0  0.8946692075944422  0.8889340395764027  0.6031642322658108  1.0000
  C   C12       1.0  0.6053307927327197  0.3889340394673922  0.8968357681066709  1.0000
  C   C13       1.0  0.9472116131639189  0.14881883352829342  0.44050965482677584  1.0000
  C   C14       1.0  0.5527883857856024  0.6488188329466231  0.059490345559733364  1.0000
  C   C15       1.0  0.052788386425847475  0.8511811666897277  0.559490345568411  1.0000
  C   C16       1.0  0.44721161380416413  0.3511811665807172  0.9405096548354533  1.0000
  C   C17       1.0  0.2684698435962493  0.18349184613338415  0.3772093089313281  1.0000
  C   C18       1.0  0.23153015714114628  0.6834918462423948  0.12279069104596692  1.0000
  C   C19       1.0  0.7315301559676827  0.8165081533939562  0.622790690990975  1.0000
  C   C20       1.0  0.768469844333645  0.31650815397562637  0.8772093089086231  1.0000
  C   C21       1.0  0.7552602949804336  0.09411308676600293  0.4673130128512894  1.0000
  C   C22       1.0  0.7447397058541125  0.5941130868750134  0.03268698709462286  1.0000
  C   C23       1.0  0.24473970649435767  0.9058869127613374  0.5326869871033005  1.0000
  C   C24       1.0  0.2552602937098195  0.40588691334300764  0.9673130128276802  1.0000
  C   C25       1.0  0.6087016716082185  0.2470427639304995  0.31039202126915755  1.0000
  C   C26       1.0  0.8912983292263275  0.7470427640395101  0.18960797867675475  1.0000
  C   C27       1.0  0.3912983279557134  0.7529572362875216  0.6896079786531456  1.0000
  C   C28       1.0  0.10870167224846378  0.25295723617851107  0.8103920212778353  1.0000
  C   C29       1.0  0.08607314002039099  0.0184959445419454  0.3777356817862292  1.0000
  C   C30       1.0  0.4139268607170046  0.5184959446509559  0.12226431819106583  1.0000
  C   C31       1.0  0.913926859543541  0.981504054985395  0.622264318136074  1.0000
  C   C32       1.0  0.5860731407577866  0.4815040555670651  0.8777356817635241  1.0000
  C   C33       1.0  0.9033449585070078  0.9653412764170488  0.40369874767005326  1.0000
  C   C34       1.0  0.5966550423275382  0.4653412763080382  0.09630125227585903  1.0000
  C   C35       1.0  0.09665504296778336  0.03465872380097237  0.5963012522845368  1.0000
  C   C36       1.0  0.4033449572363938  0.5346587239099829  0.9036987476464442  1.0000
  C   C37       1.0  0.44706501674500004  0.17754470951892004  0.3343215204339314  1.0000
  C   C38       1.0  0.052934983992395546  0.6775447096279307  0.16567847954336365  1.0000
  C   C39       1.0  0.5529349828189319  0.8224552900084203  0.6656784794883717  1.0000
  C   C40       1.0  0.9470650155715364  0.3224552905900905  0.8343215203789395  1.0000
  C   C41       1.0  0.9521887229087369  0.3750823713630787  0.26443399834132264  1.0000
  C   C42       1.0  0.5478112760149499  0.8750823707814084  0.23556600157230276  1.0000
  C   C43       1.0  0.04781127665519508  0.6249176288549424  0.7355660015809804  1.0000
  C   C44       1.0  0.45218872354898215  0.12491762874593187  0.7644339983500003  1.0000
  C   C45       1.0  0.013425195889375985  0.24545209361638207  0.44878105065213636  1.0000
  C   C46       1.0  0.48657480293716043  0.7454520937253926  0.0512189492928717  1.0000
  C   C47       1.0  0.9865748036745561  0.7545479066016391  0.5512189492701668  1.0000
  C   C48       1.0  0.5134251966267716  0.2545479064926285  0.9487810506294314  1.0000
  C   C49       1.0  0.794125697860878  0.21871429392305422  0.26960613762971986  1.0000
  C   C50       1.0  0.705874302973668  0.7187142940320648  0.2303938623161925  1.0000
  C   C51       1.0  0.20587430170305407  0.7812857056042861  0.7303938622925833  1.0000
  C   C52       1.0  0.29412569659026394  0.28128570549527554  0.7696061376061106  1.0000
  C   C53       1.0  0.9650218498135698  0.2819101562107956  0.24783143489985993  1.0000
  C   C54       1.0  0.5349781510209762  0.7819101563198062  0.2521685650460524  1.0000
  C   C55       1.0  0.03497815166122137  0.7180898440072255  0.7521685650547302  1.0000
  C   C56       1.0  0.4650218485429558  0.21808984389821492  0.7478314348762506  1.0000
  C   C57       1.0  0.7615261752102691  0.4053073168191473  0.30341371468830836  1.0000
  C   C58       1.0  0.7384738237134177  0.9053073169281578  0.19658628522531701  1.0000
  C   C59       1.0  0.2384738243536629  0.5946926827081931  0.6965862852339947  1.0000
  C   C60       1.0  0.2615261758505143  0.09469268259918248  0.803413714696986  1.0000
  C   C61       1.0  0.5952943362623611  0.3416286914538622  0.3266746236136105  1.0000
  C   C62       1.0  0.904705664572185  0.8416286915628727  0.17332537633230183  1.0000
  C   C63       1.0  0.4047056652124302  0.6583713080734781  0.6733253763409794  1.0000
  C   C64       1.0  0.09529433499174701  0.15837130865514837  0.8266746235900011  1.0000
  C   C65       1.0  0.8646681179300993  0.8658537330830426  0.3880930516984101  1.0000
  C   C66       1.0  0.635331881019422  0.36585373297403195  0.11190694868809911  1.0000
  C   C67       1.0  0.13533188165966703  0.13414626713497863  0.6119069486967768  1.0000
  C   C68       1.0  0.3646681185703446  0.6341462672439891  0.8880930517070876  1.0000
  N   N1        1.0  0.7484817307603648  0.002719482386066869  0.4458812344237783  1.0000
  N   N2        1.0  0.7515182681891563  0.5027194824950775  0.05411876596273081  1.0000
  N   N3        1.0  0.2515182688294015  0.9972805171412735  0.5541187659714085  1.0000
  N   N4        1.0  0.2484817314006101  0.4972805170322629  0.945881234432456  1.0000
  O   O1        1.0  0.3043621855131203  0.5678380495250036  0.317888132502958  1.0000
  O   O2        1.0  0.19563781522427534  0.0678380494159931  0.18211186747433702  1.0000
  O   O3        1.0  0.6956378159616708  0.4321619506930175  0.6821118674516321  1.0000
  O   O4        1.0  0.8043621843396567  0.9321619501113472  0.8178881324479661  1.0000
  O   O5        1.0  0.6018635944258289  0.11989351793501693  0.5063655623995003  1.0000
  O   O6        1.0  0.8981364058754987  0.6198935180440275  0.9936344375000976  1.0000
  O   O7        1.0  0.39813640704896225  0.8801064822830043  0.4936344375550897  1.0000
  O   O8        1.0  0.10186359368843333  0.3801064821739936  0.006365562422205312  1.0000
  O   O9        1.0  0.20998611943445536  0.263935159033695  0.408850149160191  1.0000
  O   O10       1.0  0.29001388132877465  0.7639351584520248  0.0911498512899878  1.0000
  O   O11       1.0  0.790013880155311  0.736064841184326  0.5911498512349959  1.0000
  O   O12       1.0  0.7099861182609918  0.23606484107531553  0.908850149105199  1.0000
  O   O13       1.0  0.11784360698410738  0.43572230516576066  0.24145098095774736  1.0000
  O   O14       1.0  0.3821563937532882  0.9357223052747712  0.2585490190195477  1.0000
  O   O15       1.0  0.8821563925798247  0.5642776943615797  0.7585490189645557  1.0000
  O   O16       1.0  0.6178436077215029  0.06427769425256916  0.7414509809350424  1.0000
  O   O17       1.0  0.9371397094801027  0.3075860894488013  0.4816537872925444  1.0000
  O   O18       1.0  0.5628602913544435  0.8075860895578119  0.01834621265336804  1.0000
  O   O19       1.0  0.0628602919946886  0.6924139107692199  0.5183462126620457  1.0000
  O   O20       1.0  0.4371397082094886  0.1924139106602093  0.981653787268935  1.0000
  O   O21       1.0  0.757336339958864  0.49764720429676823  0.3164225532418132  1.0000
  O   O22       1.0  0.7426636589906572  0.997647203715098  0.183577447144696  1.0000
  O   O23       1.0  0.24266365963090242  0.5023527959212529  0.6835774471533737  1.0000
  O   O24       1.0  0.2573363405991092  0.00235279581224235  0.8164225532504908  1.0000
  S   S1        1.0  0.20334745592322923  0.607432159283012  0.37852375146689776  1.0000
  S   S2        1.0  0.2966525429033072  0.10743215917400137  0.12147624847811027  1.0000
  S   S3        1.0  0.7966525436407029  0.3925678409350092  0.6214762484554054  1.0000
  S   S4        1.0  0.7033474566606248  0.8925678403533389  0.8785237514441928  1.0000
