data_image0
_chemical_formula_structural       H26C20O10S2I2
_chemical_formula_sum              "H26 C20 O10 S2 I2"
_cell_length_a       8.021074043360064
_cell_length_b       8.935135940394934
_cell_length_c       10.094350499251519
_cell_angle_alpha    80.62780297631366
_cell_angle_beta     76.50169068497037
_cell_angle_gamma    66.76951564823565

_space_group_name_H-M_alt    "P 1"
_space_group_IT_number       1

loop_
  _space_group_symop_operation_xyz
  'x, y, z'

loop_
  _atom_site_type_symbol
  _atom_site_label
  _atom_site_symmetry_multiplicity
  _atom_site_fract_x
  _atom_site_fract_y
  _atom_site_fract_z
  _atom_site_occupancy
  H   H1        1.0  0.778553829313272  0.25728417144026433  0.5590228113313411  1.0000
  H   H2        1.0  0.22144617047157283  0.7427158284775215  0.44097718913210504  1.0000
  H   H3        1.0  0.5782916258530758  0.1694632840138367  0.4631289279677352  1.0000
  H   H4        1.0  0.42170837393176897  0.8305367159039491  0.536871072495711  1.0000
  H   H5        1.0  0.6952173149433793  0.04095600433141259  0.24075465579558544  1.0000
  H   H6        1.0  0.3047826845726777  0.9590439968951443  0.7592453436404879  1.0000
  H   H7        1.0  0.014592912075607053  0.0010176811596688722  0.11533493602513363  1.0000
  H   H8        1.0  0.9854070877092379  0.9989823187581172  0.8846650644383124  1.0000
  H   H9        1.0  0.09058867043389553  0.4399484338531115  0.6897973801728088  1.0000
  H   H10       1.0  0.9094113296105729  0.5600515661550449  0.31020261926864473  1.0000
  H   H11       1.0  0.25247576798804405  0.4222763860252795  0.5307288195084838  1.0000
  H   H12       1.0  0.7475242317968009  0.5777236138925063  0.4692711809549622  1.0000
  H   H13       1.0  0.2838473477664352  0.25081564575236126  0.6555350491749162  1.0000
  H   H14       1.0  0.7161526520184098  0.7491843541654246  0.34446495128852983  1.0000
  H   H15       1.0  0.3651898585845131  0.3766657430776756  0.82595279945891  1.0000
  H   H16       1.0  0.6348101412003319  0.6233342568401102  0.17404720100453616  1.0000
  H   H17       1.0  0.3639267625509397  0.5793055099782282  0.8213099005575415  1.0000
  H   H18       1.0  0.636073237493529  0.42069449002992804  0.1786900988839119  1.0000
  H   H19       1.0  0.14590246183832903  0.5501916589113239  0.8569607220958259  1.0000
  H   H20       1.0  0.854097539455317  0.4498083410916696  0.14303927734492972  1.0000
  H   H21       1.0  0.15640741781411166  0.6678576136457198  0.20288508221065513  1.0000
  H   H22       1.0  0.8435925819707334  0.332142386272066  0.7971149182527909  1.0000
  H   H23       1.0  0.03553965150408796  0.7133890946044601  0.06192059230202429  1.0000
  H   H24       1.0  0.9644603485403807  0.2866109054036962  0.9380794071394292  1.0000
  H   H25       1.0  0.2513388655195496  0.7441385454010304  0.040569455681262113  1.0000
  H   H26       1.0  0.7486611345249189  0.25586145460712584  0.9594305437601914  1.0000
  C   C1        1.0  0.07418157211674976  0.1032165873662405  0.2685722886852193  1.0000
  C   C2        1.0  0.925818427668095  0.8967834125515453  0.7314277117782269  1.0000
  C   C3        1.0  0.010659609360910727  0.17884001206960667  0.39164288721254564  1.0000
  C   C4        1.0  0.9893403904239343  0.821159987848179  0.6083571132509006  1.0000
  C   C5        1.0  0.8297057642305229  0.20381200705264488  0.46100845677937785  1.0000
  C   C6        1.0  0.1702942368034996  0.7961879928599782  0.5389915436833703  1.0000
  C   C7        1.0  0.716810973173235  0.15350529745146313  0.40740980095703616  1.0000
  C   C8        1.0  0.2831890268712336  0.8464947025566931  0.5925901984844174  1.0000
  C   C9        1.0  0.7823029174341432  0.08050223612235868  0.2836757823405023  1.0000
  C   C10       1.0  0.21769708235070176  0.9194977637954271  0.7163242181229438  1.0000
  C   C11       1.0  0.9620189600454384  0.055785657767621996  0.2129242895985978  1.0000
  C   C12       1.0  0.03798103999903015  0.9442143422405344  0.7870757098428558  1.0000
  C   C13       1.0  0.1382076106226881  0.22552942778812277  0.44512775627788753  1.0000
  C   C14       1.0  0.8617923891621568  0.774470572129663  0.5548722441855587  1.0000
  C   C15       1.0  0.18156357486052146  0.3582100979350988  0.611230278198953  1.0000
  C   C16       1.0  0.8184364249243233  0.641789901982687  0.3887697222644932  1.0000
  C   C17       1.0  0.29139666369624834  0.49667169789790394  0.8677885034965604  1.0000
  C   C18       1.0  0.7086033363482203  0.5033283021102524  0.13221149594489315  1.0000
  C   C19       1.0  0.17104181814659292  0.6689528499984865  0.09212269800533772  1.0000
  C   C20       1.0  0.828958181638252  0.33104714991929934  0.9078773024581085  1.0000
  O   O1        1.0  0.3030789152903709  0.19060316441965663  0.3918099090268945  1.0000
  O   O2        1.0  0.6969210847540978  0.8093968355884996  0.608190090414559  1.0000
  O   O3        1.0  0.06005792088775251  0.31040312099894507  0.5557331971188066  1.0000
  O   O4        1.0  0.9399420788970925  0.6895968789188408  0.4442668033446395  1.0000
  O   O5        1.0  0.3149654739335504  0.9960464261760593  0.007348622306809066  1.0000
  O   O6        1.0  0.6850345261109182  0.003953573832096825  0.9926513771346446  1.0000
  O   O7        1.0  0.44976444230355084  0.8467308082597179  0.252454717617073  1.0000
  O   O8        1.0  0.5502355587304716  0.15326919165290528  0.7475452828456751  1.0000
  O   O9        1.0  0.16820954613259909  0.3704897600918993  0.10954091311660764  1.0000
  O   O10       1.0  0.8317904536522457  0.6295102398258865  0.8904590873468384  1.0000
  S   S1        1.0  0.2968196486194691  0.46262363589176253  0.046833461954891825  1.0000
  S   S2        1.0  0.7031803524145532  0.5373763640208604  0.9531665385078562  1.0000
  I   I1        1.0  0.35643747826835837  0.04716407506270141  0.16326148591951972  1.0000
  I   I2        1.0  0.6435625215164865  0.9528359248550844  0.8367385145439264  1.0000
