data_image0
_chemical_formula_structural       H16C10N2I8
_chemical_formula_sum              "H16 C10 N2 I8"
_cell_length_a       8.313873747128847
_cell_length_b       8.896171173762513
_cell_length_c       9.470530337368354
_cell_angle_alpha    71.26012864961659
_cell_angle_beta     80.63326538232823
_cell_angle_gamma    63.51969257542106

_space_group_name_H-M_alt    "P 1"
_space_group_IT_number       1

loop_
  _space_group_symop_operation_xyz
  'x, y, z'

loop_
  _atom_site_type_symbol
  _atom_site_label
  _atom_site_symmetry_multiplicity
  _atom_site_fract_x
  _atom_site_fract_y
  _atom_site_fract_z
  _atom_site_occupancy
  H   H1        1.0  0.5446896652580457  0.35276611046975026  0.22149200675064143  1.0000
  H   H2        1.0  0.6561544504475966  0.5155812543608921  0.01466893743986271  1.0000
  H   H3        1.0  0.42585640487290044  0.8744146009696911  0.4932863660908795  1.0000
  H   H4        1.0  0.5910439185712172  0.8258855155915457  0.006551182544501094  1.0000
  H   H5        1.0  0.4088136318564539  0.9456741711290413  0.2108301870146751  1.0000
  H   H6        1.0  0.9872155706350104  0.9355263960717471  0.3646321305454188  1.0000
  H   H7        1.0  0.13139712616292343  0.043414118512618664  0.317699839584176  1.0000
  H   H8        1.0  0.9369587673168255  0.9599603776695518  0.6148909575940283  1.0000
  H   H9        1.0  0.9663646897652419  0.15390838611089525  0.5228840799933606  1.0000
  H   H10       1.0  0.25049771404241267  0.03282843864208924  0.636444940184623  1.0000
  H   H11       1.0  0.19164899028986185  0.8611383300263719  0.7524000959361682  1.0000
  H   H12       1.0  0.5699517428204557  0.5581045143640561  0.597521235914562  1.0000
  H   H13       1.0  0.39740278793151057  0.5823067765492324  0.7417830931353185  1.0000
  H   H14       1.0  0.5521974221871796  0.6801311091510058  0.7203999026099722  1.0000
  H   H15       1.0  0.3734358910911974  0.44833922479739313  0.4157846698884221  1.0000
  H   H16       1.0  0.2081628754661502  0.6762436808528949  0.5285918067164387  1.0000
  C   C1        1.0  0.5775599932916932  0.5775165363460197  0.10054149957536246  1.0000
  C   C2        1.0  0.5406325808899665  0.7462289649906018  0.09863858397197076  1.0000
  C   C3        1.0  0.4384393368609917  0.8118088679493561  0.214971617198297  1.0000
  C   C4        1.0  0.09243055940288522  0.9504021231032912  0.407428658008043  1.0000
  C   C5        1.0  0.032503294384118815  0.010939739215992995  0.5490161362389357  1.0000
  C   C6        1.0  0.2041868847039801  0.9349458798409332  0.636862460015732  1.0000
  C   C7        1.0  0.47558366484600767  0.6455601030664004  0.6621531416196423  1.0000
  C   C8        1.0  0.3735695102764835  0.7082955435349816  0.33289909990184924  1.0000
  C   C9        1.0  0.41615939149465675  0.5397110014094771  0.3299329099684089  1.0000
  C   C10       1.0  0.2535663884743861  0.7752867909197722  0.45659422969447006  1.0000
  N   N1        1.0  0.5147960644510109  0.4808425531717286  0.21564985421290883  1.0000
  N   N2        1.0  0.3501753135211956  0.8077653201274506  0.5589626564441614  1.0000
  I   I1        1.0  0.5944196257743033  0.053184282588273984  0.4110706709442445  1.0000
  I   I2        1.0  0.5241859476008903  0.1521268830918292  0.70437340720221  1.0000
  I   I3        1.0  0.4486174900011723  0.2467080769897323  0.977223294292657  1.0000
  I   I4        1.0  0.007674472719663161  0.8297957346277309  0.05546357481529285  1.0000
  I   I5        1.0  0.9907394724475509  0.16999286254996818  0.9457665092007305  1.0000
  I   I6        1.0  0.9405266451181615  0.5884331984143141  0.7854829995632898  1.0000
  I   I7        1.0  0.9744219783179623  0.5070498322145762  0.501596791238631  1.0000
  I   I8        1.0  0.0419597376196946  0.42666270102622245  0.21572047076791145  1.0000
