data_image0
_chemical_formula_structural       H14C20N4O2F4I2
_chemical_formula_sum              "H14 C20 N4 O2 F4 I2"
_cell_length_a       6.2727763301094805
_cell_length_b       9.01963259465238
_cell_length_c       9.605615449082368
_cell_angle_alpha    100.07320649153114
_cell_angle_beta     92.12357424596802
_cell_angle_gamma    97.26860562812202

_space_group_name_H-M_alt    "P 1"
_space_group_IT_number       1

loop_
  _space_group_symop_operation_xyz
  'x, y, z'

loop_
  _atom_site_type_symbol
  _atom_site_label
  _atom_site_symmetry_multiplicity
  _atom_site_fract_x
  _atom_site_fract_y
  _atom_site_fract_z
  _atom_site_occupancy
  H   H1        1.0  0.466559793786886  0.2271029372043318  0.6102287278604832  1.0000
  H   H2        1.0  0.5334402059339189  0.7728970628754402  0.3897712722336903  1.0000
  H   H3        1.0  0.05270134461623947  0.6239832690950448  0.9194853893261452  1.0000
  H   H4        1.0  0.9472986551045653  0.37601673098472727  0.08051461076802814  1.0000
  H   H5        1.0  0.7411857186040967  0.5480449355307737  0.7396327979863906  1.0000
  H   H6        1.0  0.25881428250124644  0.4519550634269351  0.2603672021043133  1.0000
  H   H7        1.0  0.11325739423214931  0.22917195668754858  0.5067321431014657  1.0000
  H   H8        1.0  0.8867426053802951  0.7708280431828922  0.49326785593343064  1.0000
  H   H9        1.0  0.38297237477707885  0.4962726749128514  0.8816540538915028  1.0000
  H   H10       1.0  0.617027624943726  0.5037273251669206  0.11834594620267065  1.0000
  H   H11       1.0  0.6247109246105049  0.4202365618716417  0.4907138898070103  1.0000
  H   H12       1.0  0.3752890751103  0.5797634382081303  0.509286110287163  1.0000
  H   H13       1.0  0.7801265260295681  0.28952747787530453  0.39481498844563856  1.0000
  H   H14       1.0  0.21987347369123691  0.7104725222044674  0.6051850116485348  1.0000
  C   C1        1.0  0.329363144425168  0.008694445260372174  0.09338217668175502  1.0000
  C   C2        1.0  0.6706368550873251  0.9913055537023742  0.9066178234156967  1.0000
  C   C3        1.0  0.4091463334135793  0.1319641340541596  0.0319374316110345  1.0000
  C   C4        1.0  0.5908536679000755  0.8680358660205747  0.9680625684763909  1.0000
  C   C5        1.0  0.4238774459561813  0.8761153430388965  0.05940238185889911  1.0000
  C   C6        1.0  0.5761225537646236  0.12388465704087546  0.9405976182352743  1.0000
  C   C7        1.0  0.06028809425442854  0.5367955546623618  0.8266124237871998  1.0000
  C   C8        1.0  0.9397119054663764  0.4632044454174101  0.17338757630697363  1.0000
  C   C9        1.0  0.8870905119136709  0.4941545958669454  0.7263359325005988  1.0000
  C   C10       1.0  0.11290948780713404  0.5058454042128266  0.2736640675935746  1.0000
  C   C11       1.0  0.9025755544537019  0.38157314724790925  0.6087086076524368  1.0000
  C   C12       1.0  0.09742444526710305  0.6184268528318626  0.3912913924417365  1.0000
  C   C13       1.0  0.09421635700788844  0.3175864510735758  0.5972327058844509  1.0000
  C   C14       1.0  0.9057836427129166  0.6824135490061961  0.4027672942097224  1.0000
  C   C15       1.0  0.2444211049254531  0.46572392119024736  0.8054583612381109  1.0000
  C   C16       1.0  0.7555788947953518  0.5342760788895246  0.1945416388560626  1.0000
  C   C17       1.0  0.7185495876488369  0.3269619174093358  0.49870698681463715  1.0000
  C   C18       1.0  0.2814504136648179  0.6730380826653986  0.5012930132727883  1.0000
  C   C19       1.0  0.5833155710062234  0.056902217217315094  0.4733721775069852  1.0000
  C   C20       1.0  0.41668442860622107  0.9430977826531257  0.5266278215279114  1.0000
  N   N1        1.0  0.2626303815262798  0.3581833151775077  0.6922560726451686  1.0000
  N   N2        1.0  0.7373696181945252  0.6418166849022643  0.30774392744900486  1.0000
  N   N3        1.0  0.5753728942256401  0.201068274279697  0.5337937372401006  1.0000
  N   N4        1.0  0.42462710549516486  0.7989317258000749  0.46620626285407274  1.0000
  O   O1        1.0  0.7074145187735414  0.01190613432449864  0.38142888072773906  1.0000
  O   O2        1.0  0.2925854809472635  0.9880938657552731  0.6185711193664343  1.0000
  F   F1        1.0  0.32186880070510254  0.2635937180722423  0.059137310378663016  1.0000
  F   F2        1.0  0.678131198907342  0.7364062817981986  0.9408626886562333  1.0000
  F   F3        1.0  0.3528204297946564  0.7512845174396535  0.11403360547286327  1.0000
  F   F4        1.0  0.6471795715189984  0.24871548263508084  0.8859663946145623  1.0000
  I   I1        1.0  0.07036378591556955  0.01813868826220078  0.22405793886110686  1.0000
  I   I2        1.0  0.9296362138052354  0.9818613118175712  0.7759420612330665  1.0000
