data_image0
_chemical_formula_structural       H54C54N2O2F10I2
_chemical_formula_sum              "H54 C54 N2 O2 F10 I2"
_cell_length_a       5.410763273572404
_cell_length_b       11.698226032723257
_cell_length_c       19.232247421618283
_cell_angle_alpha    95.46334397468378
_cell_angle_beta     92.82961964723746
_cell_angle_gamma    95.30599709024631

_space_group_name_H-M_alt    "P 1"
_space_group_IT_number       1

loop_
  _space_group_symop_operation_xyz
  'x, y, z'

loop_
  _atom_site_type_symbol
  _atom_site_label
  _atom_site_symmetry_multiplicity
  _atom_site_fract_x
  _atom_site_fract_y
  _atom_site_fract_z
  _atom_site_occupancy
  H   H1        1.0  0.865132887264579  0.9396906576507738  0.9585972091947423  1.0000
  H   H2        1.0  0.1348671115403476  0.060309342056641194  0.04140279056230946  1.0000
  H   H3        1.0  0.5716042034262253  0.879980149744675  0.8575740955178807  1.0000
  H   H4        1.0  0.4283957973408591  0.12001985003960008  0.14242590476033526  1.0000
  H   H5        1.0  0.074605919514527  0.7231684279348463  0.99951851153127  1.0000
  H   H6        1.0  0.925394079406255  0.2768315718565849  0.0004814887490101694  1.0000
  H   H7        1.0  0.39321910523840914  0.7912569964288395  0.09535556214977002  1.0000
  H   H8        1.0  0.6067808957153263  0.20874300421416825  0.9046444381299839  1.0000
  H   H9        1.0  0.9427600879444131  0.702359994235249  0.8790660661525389  1.0000
  H   H10       1.0  0.05723991282267136  0.2976400055490261  0.12093393412567713  1.0000
  H   H11       1.0  0.2806991557803424  0.8254232133146887  0.7792662171199662  1.0000
  H   H12       1.0  0.7193008430245843  0.1745767863927263  0.2207337826370855  1.0000
  H   H13       1.0  0.15668636118092988  0.8106251688942878  0.6613375410893241  1.0000
  H   H14       1.0  0.8433136377398521  0.18937483089714358  0.338662459190956  1.0000
  H   H15       1.0  0.8575030630739968  0.7500857973185745  0.5616258445856539  1.0000
  H   H16       1.0  0.1424969375772324  0.24991420238168435  0.4383741551693338  1.0000
  H   H17       1.0  0.35544422279784166  0.5904885218366651  0.6992495731469739  1.0000
  H   H18       1.0  0.6445557779692428  0.40951147794760995  0.3007504271312422  1.0000
  H   H19       1.0  0.6543184510263207  0.6519081319619262  0.7997305013670403  1.0000
  H   H20       1.0  0.3456815499274147  0.34809186868108166  0.20026949891271373  1.0000
  H   H21       1.0  0.6222841124271257  0.6227644944538132  0.4855357661051895  1.0000
  H   H22       1.0  0.37771588822410346  0.3772355052464456  0.5144642336497982  1.0000
  H   H23       1.0  0.4801740179026529  0.7531419792861419  0.5053417168613563  1.0000
  H   H24       1.0  0.5198259828644316  0.2468580204981332  0.49465828341685986  1.0000
  H   H25       1.0  0.0638648498256374  0.6492314483040302  0.47128224551451753  1.0000
  H   H26       1.0  0.9361351508255917  0.35076855139622876  0.5287177542404703  1.0000
  H   H27       1.0  0.19623461613234572  0.5170513531842196  0.457070548585712  1.0000
  H   H28       1.0  0.8037653847055345  0.48294864737477206  0.5429294511708136  1.0000
  H   H29       1.0  0.44869192127730445  0.5944464417662191  0.36346099268838444  1.0000
  H   H30       1.0  0.5513080793739248  0.40555355793403985  0.6365390070666033  1.0000
  H   H31       1.0  0.32345712636097956  0.7277098427907571  0.37658151944634966  1.0000
  H   H32       1.0  0.676542872443947  0.2722901569166579  0.623418480310702  1.0000
  H   H33       1.0  0.8953802773800773  0.6285693544331614  0.34208008048450894  1.0000
  H   H34       1.0  0.10461972327115178  0.3714306452670974  0.6579199192704789  1.0000
  H   H35       1.0  0.023458893595661133  0.4953116465993506  0.3313225431831417  1.0000
  H   H36       1.0  0.9765411073580742  0.5046883540436572  0.6686774570966122  1.0000
  H   H37       1.0  0.2830925240552194  0.5637104521392666  0.2376754252182175  1.0000
  H   H38       1.0  0.7169074750522135  0.43628954851089746  0.7623245750636005  1.0000
  H   H39       1.0  0.17025331181650558  0.7002516310337928  0.24809192475993264  1.0000
  H   H40       1.0  0.8297466891372298  0.2997483696092149  0.7519080755198213  1.0000
  H   H41       1.0  0.8379256115478889  0.4744477510860617  0.20673748188398186  1.0000
  H   H42       1.0  0.16207438725703763  0.5255522486213533  0.7932625178730699  1.0000
  H   H43       1.0  0.7422746896845526  0.61516209527508  0.21072543491991164  1.0000
  H   H44       1.0  0.25772530923622927  0.3848379045163512  0.7892745653603684  1.0000
  H   H45       1.0  0.04031730578020551  0.6601123959915824  0.11698988777843958  1.0000
  H   H46       1.0  0.959682694986879  0.33988760379269267  0.8830101124997766  1.0000
  H   H47       1.0  0.11138111114585293  0.5156167018317341  0.11069691030372882  1.0000
  H   H48       1.0  0.8886188877749288  0.4843832979596971  0.8893030899765513  1.0000
  H   H49       1.0  0.6540962536957565  0.45036151126771123  0.07701703848291483  1.0000
  H   H50       1.0  0.34590374522502537  0.54963848852372  0.9229829617973653  1.0000
  H   H51       1.0  0.7857684325318016  0.5411665693488591  0.01720776483843954  1.0000
  H   H52       1.0  0.21423156811942753  0.4588334303513998  0.9827922349165483  1.0000
  H   H53       1.0  0.5930420213906109  0.5973537956148947  0.08150958536241072  1.0000
  H   H54       1.0  0.40695797944726925  0.4026462049440969  0.9184904143941148  1.0000
  C   C1        1.0  0.8679729722718709  0.8738493314353072  0.31474661415829497  1.0000
  C   C2        1.0  0.1320270266489109  0.12615066835612393  0.6852533861219852  1.0000
  C   C3        1.0  0.9412355759697192  0.8818674030975359  0.38556863411207365  1.0000
  C   C4        1.0  0.05876442498401616  0.11813259754547203  0.6144313661676802  1.0000
  C   C5        1.0  0.16640039401897527  0.9436086826685828  0.40992045145612954  1.0000
  C   C6        1.0  0.8335996067481092  0.056391317115692154  0.5900795488220866  1.0000
  C   C7        1.0  0.3156277189933783  0.9966073420749467  0.36288956656060556  1.0000
  C   C8        1.0  0.6843722799274036  0.0033926577164846384  0.6371104337196746  1.0000
  C   C9        1.0  0.23852115569836435  0.9863158313242627  0.29217473573055897  1.0000
  C   C10       1.0  0.7614788434090685  0.013684169325901305  0.707825264551259  1.0000
  C   C11       1.0  0.014206755313445639  0.9256211199226216  0.26651634530284174  1.0000
  C   C12       1.0  0.9857932437939873  0.0743788807275424  0.7334836549789763  1.0000
  C   C13       1.0  0.6877362926911905  0.8912637879764421  0.9659830030366803  1.0000
  C   C14       1.0  0.3122637080758939  0.10873621180783294  0.034016997241535875  1.0000
  C   C15       1.0  0.52105255457566  0.8572111562296372  0.9089423184954079  1.0000
  C   C16       1.0  0.47894744607556916  0.14278884347062154  0.09105768125957987  1.0000
  C   C17       1.0  0.29225816045556935  0.793908668846804  0.9184902761638903  1.0000
  C   C18       1.0  0.7077418403823108  0.20609133171218771  0.08150972359263524  1.0000
  C   C19       1.0  0.24808138611727157  0.7706069070821637  0.9876970296251963  1.0000
  C   C20       1.0  0.7519186128035104  0.22939309270926747  0.012302970655083697  1.0000
  C   C21       1.0  0.42546133981601053  0.8082726323479503  0.041481048593612915  1.0000
  C   C22       1.0  0.5745386592914222  0.1917273683022138  0.9585189516882049  1.0000
  C   C23       1.0  0.10579384655189757  0.7530269317427372  0.8627461031262377  1.0000
  C   C24       1.0  0.8942061522530291  0.24697306796467802  0.13725389663081414  1.0000
  C   C25       1.0  0.11708406410910803  0.7745658856385362  0.7948578242615877  1.0000
  C   C26       1.0  0.8829159348116737  0.22543411415289494  0.2051421760186925  1.0000
  C   C27       1.0  0.9317210697807381  0.7362951803163493  0.7384196431177318  1.0000
  C   C28       1.0  0.06827893087049113  0.2637048193839097  0.2615803566372559  1.0000
  C   C29       1.0  0.980744876876256  0.7624684065920269  0.6701688638639048  1.0000
  C   C30       1.0  0.01925512377497319  0.2375315931082319  0.32983113589108287  1.0000
  C   C31       1.0  0.8119313355053667  0.7280447937552554  0.6134395289823796  1.0000
  C   C32       1.0  0.18806866341541514  0.27195520603617573  0.38656047129790055  1.0000
  C   C33       1.0  0.5855113522458482  0.665364426110423  0.6241050942928957  1.0000
  C   C34       1.0  0.41448864674572944  0.3346355744557249  0.3758949054656939  1.0000
  C   C35       1.0  0.5324943266181266  0.6385738621110267  0.6919267932255505  1.0000
  C   C36       1.0  0.46750567403310267  0.36142613758923214  0.30807320652943726  1.0000
  C   C37       1.0  0.7017431789863046  0.6734491489753813  0.7477799260392168  1.0000
  C   C38       1.0  0.2982568216649245  0.3265508507248775  0.2522200737157709  1.0000
  C   C39       1.0  0.45179633992186075  0.6583867928677947  0.5034368854269654  1.0000
  C   C40       1.0  0.5482036608452237  0.3416132069164804  0.49656311485125076  1.0000
  C   C41       1.0  0.23191922997544162  0.6106423163299664  0.4543586413045388  1.0000
  C   C42       1.0  0.7680807707916427  0.38935768345430866  0.5456413589736772  1.0000
  C   C43       1.0  0.28068996870999785  0.6343966305179052  0.379293238434177  1.0000
  C   C44       1.0  0.7193100321278824  0.36560337004108645  0.6207067613223486  1.0000
  C   C45       1.0  0.064535270558282  0.588415127025655  0.3272948825590957  1.0000
  C   C46       1.0  0.9354647283624999  0.4115848727657762  0.6727051177211844  1.0000
  C   C47       1.0  0.11836335535351064  0.6077133336983594  0.25188716503125996  1.0000
  C   C48       1.0  0.8816366435672713  0.3922866660930718  0.7481128352490202  1.0000
  C   C49       1.0  0.900702499425919  0.5647083682030792  0.19947988942841266  1.0000
  C   C50       1.0  0.09929750122531018  0.4352916314971796  0.8005201103265751  1.0000
  C   C51       1.0  0.9625175425090354  0.5714400347459135  0.12323061114445726  1.0000
  C   C52       1.0  0.037482458328844726  0.4285599658130781  0.8767693886120684  1.0000
  C   C53       1.0  0.7373237450352715  0.5383461085904887  0.07191321109874614  1.0000
  C   C54       1.0  0.2626762558026086  0.461653891968503  0.9280867886577795  1.0000
  N   N1        1.0  0.6440441270397989  0.8673065352114702  0.03161960751424306  1.0000
  N   N2        1.0  0.3559558737980813  0.1326934653475216  0.9683803922422826  1.0000
  O   O1        1.0  0.40749309612735224  0.6268096082343063  0.5727295343816785  1.0000
  O   O2        1.0  0.5925069046397323  0.3731903915499688  0.42727046589653755  1.0000
  F   F1        1.0  0.6473788452254466  0.8129029175095159  0.2935322574000017  1.0000
  F   F2        1.0  0.35262115542578254  0.18709708219074292  0.706467742354986  1.0000
  F   F3        1.0  0.7975219038472143  0.8294920697464401  0.43114791193375285  1.0000
  F   F4        1.0  0.20247809507356745  0.1705079300449911  0.5688520883465272  1.0000
  F   F5        1.0  0.2397680207924965  0.9500001493094268  0.47827502803320265  1.0000
  F   F6        1.0  0.7602319780124301  0.04999985039798825  0.5217249717238491  1.0000
  F   F7        1.0  0.5344516630326369  0.05671350360427918  0.3860755754974577  1.0000
  F   F8        1.0  0.4655483378052433  0.9432864969547125  0.6139244242590679  1.0000
  F   F9        1.0  0.3921222224406695  0.03743231667320016  0.2483356974089878  1.0000
  F   F10       1.0  0.6078777782105597  0.9625676830270586  0.7516643023459999  1.0000
  I   I1        1.0  0.8890068587099859  0.9097513541948803  0.15890119215487422  1.0000
  I   I2        1.0  0.1109931419412433  0.09024864550537846  0.8410988076001135  1.0000
