data_image0
_chemical_formula_structural       H18C22N4O10F2
_chemical_formula_sum              "H18 C22 N4 O10 F2"
_cell_length_a       7.017842342178398
_cell_length_b       7.469749043200434
_cell_length_c       10.63699557674167
_cell_angle_alpha    106.04269976943557
_cell_angle_beta     95.88709099454806
_cell_angle_gamma    97.36773068004817

_space_group_name_H-M_alt    "P 1"
_space_group_IT_number       1

loop_
  _space_group_symop_operation_xyz
  'x, y, z'

loop_
  _atom_site_type_symbol
  _atom_site_label
  _atom_site_symmetry_multiplicity
  _atom_site_fract_x
  _atom_site_fract_y
  _atom_site_fract_z
  _atom_site_occupancy
  H   H1        1.0  0.6819389363075091  0.7527065710391851  0.08706579071934878  1.0000
  H   H2        1.0  0.31806106412687724  0.24729342894559916  0.9129342089785234  1.0000
  H   H3        1.0  0.4662781910561105  0.9152288494394551  0.6063371521419343  1.0000
  H   H4        1.0  0.533721809378276  0.08477115054532917  0.393662847555938  1.0000
  H   H5        1.0  0.9752186095107349  0.8833296556840406  0.8580985219143146  1.0000
  H   H6        1.0  0.024781389492167707  0.1166703443066381  0.14190147768524486  1.0000
  H   H7        1.0  0.4087187405671924  0.7656831939408913  0.965396643195305  1.0000
  H   H8        1.0  0.5912812584357103  0.2343168060497874  0.03460335640425434  1.0000
  H   H9        1.0  0.2575105930395358  0.829946054395643  0.7638773147528589  1.0000
  H   H10       1.0  0.7424894073909221  0.1700539455892269  0.23612268588487564  1.0000
  H   H11       1.0  0.8530622443360945  0.012441795927076192  0.45936828065104984  1.0000
  H   H12       1.0  0.1469377560982919  0.9875582040577082  0.5406317190468224  1.0000
  H   H13       1.0  0.9038055833554896  0.5990331936016835  0.18930715920436536  1.0000
  H   H14       1.0  0.09619441564348466  0.4009668063890806  0.8106928413350563  1.0000
  H   H15       1.0  0.5326548953699909  0.5605421244106749  0.4029897787662423  1.0000
  H   H16       1.0  0.4673451036329117  0.4394578755800039  0.597010220833317  1.0000
  H   H17       1.0  0.943358614715899  0.5301819178621865  0.3960930954318972  1.0000
  H   H18       1.0  0.05664138571848732  0.46981808212259785  0.603906904265975  1.0000
  C   C1        1.0  0.5295734250556081  0.8874517307635457  0.6951589694250749  1.0000
  C   C2        1.0  0.47042657537484966  0.11254826922132402  0.3048410312126596  1.0000
  C   C3        1.0  0.7005700135743036  0.819141263191649  0.9246590813373243  1.0000
  C   C4        1.0  0.29942998686008276  0.18085873679313527  0.07534091836054808  1.0000
  C   C5        1.0  0.8181426279671622  0.8674426839316126  0.8367368065798083  1.0000
  C   C6        1.0  0.18185737246329578  0.13255731605325713  0.16326319405792636  1.0000
  C   C7        1.0  0.49831957771758584  0.8042348863010776  0.8966284403264546  1.0000
  C   C8        1.0  0.5016804227128719  0.195765113683792  0.10337156031127992  1.0000
  C   C9        1.0  0.853597987574883  0.9444660322491644  0.6261710262481939  1.0000
  C   C10       1.0  0.1464020128595035  0.055533967735620124  0.3738289734496784  1.0000
  C   C11       1.0  0.7314437230417206  0.9003135122454641  0.7219604914162904  1.0000
  C   C12       1.0  0.2685562773926658  0.09968648773932029  0.2780395082815819  1.0000
  C   C13       1.0  0.4142378643070856  0.8388073642347472  0.783356456257208  1.0000
  C   C14       1.0  0.5857621361273007  0.16119263575003714  0.21664354344066444  1.0000
  C   C15       1.0  0.04921920418081865  0.5944375413129969  0.23355173771328935  1.0000
  C   C16       1.0  0.9507807962496391  0.40556245867187285  0.7664482629244452  1.0000
  C   C17       1.0  0.24025995698499625  0.5370180901359071  0.4139218971262147  1.0000
  C   C18       1.0  0.7597400434493901  0.4629819098488773  0.5860781025716577  1.0000
  C   C19       1.0  0.4021730248474019  0.6249090428228516  0.2391514442353107  1.0000
  C   C20       1.0  0.5978269741555007  0.3750909571678272  0.7608485553642486  1.0000
  C   C21       1.0  0.20960718437455816  0.6282400617373551  0.17725674439404576  1.0000
  C   C22       1.0  0.7903928160558996  0.37175993824751463  0.8227432562436887  1.0000
  N   N1        1.0  0.40039063415737786  0.5773394371739465  0.35699632600638387  1.0000
  N   N2        1.0  0.5996093662730799  0.42266056281092335  0.6430036746313507  1.0000
  N   N3        1.0  0.06600510745277362  0.5520884670276122  0.35084489198511365  1.0000
  N   N4        1.0  0.9339948929816128  0.44791153295717223  0.6491551077127586  1.0000
  O   O1        1.0  0.7839870204955187  0.7881576479195079  0.036206338162069904  1.0000
  O   O2        1.0  0.21601297850738402  0.21184235207117091  0.9637936614374895  1.0000
  O   O3        1.0  0.0327169493454567  0.9411426019392921  0.6391052473158545  1.0000
  O   O4        1.0  0.9672830496535174  0.05885739805147198  0.360894753223567  1.0000
  O   O5        1.0  0.7607522353278087  0.9861056975750879  0.5262509728734404  1.0000
  O   O6        1.0  0.2392477639189137  0.013894303827629594  0.47374902701660276  1.0000
  O   O7        1.0  0.5575825892854733  0.657704087371931  0.19706139282484095  1.0000
  O   O8        1.0  0.4424174111449844  0.3422959126129389  0.8029386078128936  1.0000
  O   O9        1.0  0.2523814028730743  0.48892366295286094  0.5184727828296049  1.0000
  O   O10       1.0  0.7476185975573836  0.5110763370320088  0.48152721780812957  1.0000
  F   F1        1.0  0.19247902111117854  0.6646073493191332  0.059582763420769354  1.0000
  F   F2        1.0  0.8075209793232078  0.33539265066565116  0.940417236277103  1.0000
