data_image0
_chemical_formula_structural       H22C26N4O8F2
_chemical_formula_sum              "H22 C26 N4 O8 F2"
_cell_length_a       6.830421612858552
_cell_length_b       7.335489680890779
_cell_length_c       12.27490587219494
_cell_angle_alpha    106.19718248529642
_cell_angle_beta     91.51832425003829
_cell_angle_gamma    92.74432443585917

_space_group_name_H-M_alt    "P 1"
_space_group_IT_number       1

loop_
  _space_group_symop_operation_xyz
  'x, y, z'

loop_
  _atom_site_type_symbol
  _atom_site_label
  _atom_site_symmetry_multiplicity
  _atom_site_fract_x
  _atom_site_fract_y
  _atom_site_fract_z
  _atom_site_occupancy
  H   H1        1.0  0.9384919836186959  0.37970243995483416  0.4112467110224062  1.0000
  H   H2        1.0  0.06150801667337289  0.6202975598028596  0.5887532886354894  1.0000
  H   H3        1.0  0.5357667927097476  0.357010625861607  0.4191415946360467  1.0000
  H   H4        1.0  0.46423320758232106  0.6429893738960868  0.5808584050218489  1.0000
  H   H5        1.0  0.5286872929345702  0.09073651236590731  0.25473375308875673  1.0000
  H   H6        1.0  0.47131270589265745  0.9092634873867425  0.7452662465453856  1.0000
  H   H7        1.0  0.30416046380657147  0.6999993728724049  0.921387760543345  1.0000
  H   H8        1.0  0.6958395364854972  0.30000062688528883  0.07861223911455045  1.0000
  H   H9        1.0  0.9019521958593815  0.8120870802908562  0.04964087211021812  1.0000
  H   H10       1.0  0.09804780443268726  0.18791291946683744  0.9503591275476775  1.0000
  H   H11       1.0  0.7549235890266818  0.3431828975732688  0.753715663232806  1.0000
  H   H12       1.0  0.24507641126538687  0.6568171021844248  0.24628433642508954  1.0000
  H   H13       1.0  0.2081101268385906  0.4412084408152823  0.7649889762745666  1.0000
  H   H14       1.0  0.7918898735300067  0.558791560357822  0.2350110244387859  1.0000
  H   H15       1.0  0.0010010458967127799  0.5357257956164077  0.8945811032789553  1.0000
  H   H16       1.0  0.99899895439263  0.4642742041347792  0.105418897192476  1.0000
  H   H17       1.0  0.5551676446841713  0.8922506683783028  0.06254054404882035  1.0000
  H   H18       1.0  0.44483235560517154  0.10774933137288388  0.937459456422611  1.0000
  H   H19       1.0  0.5196478881069635  0.17705432055688763  0.6408661708426112  1.0000
  H   H20       1.0  0.4803521107175381  0.8229456791892554  0.35913382960506696  1.0000
  H   H21       1.0  0.12727273241345413  0.911467426977795  0.46805319871782514  1.0000
  H   H22       1.0  0.8727272664137734  0.08853257277485474  0.5319468009163172  1.0000
  C   C1        1.0  0.3893885256466435  0.1482670926612934  0.2845717815482856  1.0000
  C   C2        1.0  0.6106114747219538  0.8517329085118107  0.7154282191650669  1.0000
  C   C3        1.0  0.031032717805851824  0.16342477363425642  0.2744988504794521  1.0000
  C   C4        1.0  0.9689672824862169  0.8365752261234373  0.7255011491784435  1.0000
  C   C5        1.0  0.2123005261190105  0.07951181043031134  0.23315295119988563  1.0000
  C   C6        1.0  0.7876994741703321  0.9204881893208755  0.7668470492715457  1.0000
  C   C7        1.0  0.23922290454977957  0.3911707778620788  0.42406351121015523  1.0000
  C   C8        1.0  0.7607770942774481  0.6088292218905709  0.575936488423987  1.0000
  C   C9        1.0  0.4570117831350832  0.6634457155465221  0.9160660257452635  1.0000
  C   C10       1.0  0.5429882171542596  0.3365542842046648  0.08393397472616795  1.0000
  C   C11       1.0  0.7934016142807175  0.7263347098138406  0.9874806787047712  1.0000
  C   C12       1.0  0.20659838600862535  0.27366528993734623  0.012519321766660152  1.0000
  C   C13       1.0  0.2091614430275741  0.13455370344228906  0.5955032626467593  1.0000
  C   C14       1.0  0.7908385572644945  0.8654462963154046  0.4044967370111362  1.0000
  C   C15       1.0  0.708766309692664  0.4625921678409134  0.8210644740314812  1.0000
  C   C16       1.0  0.29123369059667875  0.5374078319102734  0.17893552643995006  1.0000
  C   C17       1.0  0.3571093590019965  0.39370792711929536  0.7509073299882435  1.0000
  C   C18       1.0  0.6428906398252311  0.6062920726333544  0.24909266964589902  1.0000
  C   C19       1.0  0.8480883911998772  0.5719044269961534  0.8999351689708528  1.0000
  C   C20       1.0  0.1519116090921916  0.42809557276154026  0.10006483068704282  1.0000
  C   C21       1.0  0.5974091118880842  0.7718071037391914  0.9949098984226497  1.0000
  C   C22       1.0  0.4025908884039845  0.2281928960185023  0.0050901012352460775  1.0000
  C   C23       1.0  0.37862903955655236  0.2362564575215962  0.6641960468154807  1.0000
  C   C24       1.0  0.6213709592706753  0.7637435422310536  0.33580395281866166  1.0000
  C   C25       1.0  0.509826705804227  0.5059648825248884  0.828568693509977  1.0000
  C   C26       1.0  0.4901732945670963  0.4940351186547225  0.1714313063898398  1.0000
  N   N1        1.0  0.06238932188715311  0.3173696302624267  0.3717881907782023  1.0000
  N   N2        1.0  0.9376106784049155  0.6826303694952669  0.6282118088796933  1.0000
  N   N3        1.0  0.40052710415275716  0.30112306606289163  0.37909166932129496  1.0000
  N   N4        1.0  0.5994728946744703  0.6988769336897582  0.6209083303128473  1.0000
  O   O1        1.0  0.25275076875593316  0.533921633511  0.5098832829322805  1.0000
  O   O2        1.0  0.747249230147823  0.46607836765706034  0.49011671775731885  1.0000
  O   O3        1.0  0.8642125793656052  0.1105771503268137  0.23214772915684387  1.0000
  O   O4        1.0  0.135787421005718  0.8894228508527974  0.7678522707429729  1.0000
  O   O5        1.0  0.038188516256297274  0.1909862418443341  0.6092368257804509  1.0000
  O   O6        1.0  0.9618114840330455  0.8090137579068528  0.3907631746909805  1.0000
  O   O7        1.0  0.2518192135815593  0.9786501815574731  0.5168371925807778  1.0000
  O   O8        1.0  0.7481807867105095  0.021349818200220527  0.48316280707711784  1.0000
  F   F1        1.0  0.1993441120992651  0.9293759794697442  0.1390437649873995  1.0000
  F   F2        1.0  0.8006558868044912  0.0706240216983161  0.8609562357021998  1.0000
