data_image0
_chemical_formula_structural       H98C96N6P18
_chemical_formula_sum              "H98 C96 N6 P18"
_cell_length_a       12.381824507231004
_cell_length_b       13.015153660031292
_cell_length_c       16.935954325503758
_cell_angle_alpha    69.83453290417422
_cell_angle_beta     70.44306209327443
_cell_angle_gamma    68.52913877763878

_space_group_name_H-M_alt    "P 1"
_space_group_IT_number       1

loop_
  _space_group_symop_operation_xyz
  'x, y, z'

loop_
  _atom_site_type_symbol
  _atom_site_label
  _atom_site_symmetry_multiplicity
  _atom_site_fract_x
  _atom_site_fract_y
  _atom_site_fract_z
  _atom_site_occupancy
  H   H1        1.0  0.5515853004757055  0.7148586258294398  0.3380244845970098  1.0000
  H   H2        1.0  0.4484146997316082  0.28514137421111807  0.6619755153194423  1.0000
  H   H3        1.0  0.47446952137495463  0.8377969560726971  0.05016267082206749  1.0000
  H   H4        1.0  0.5255304786196566  0.16220304375090447  0.9498373297421345  1.0000
  H   H5        1.0  0.3208416872202107  0.8069638316228094  0.5745612004301097  1.0000
  H   H6        1.0  0.6791583129871032  0.19303616841774854  0.42543879948634244  1.0000
  H   H7        1.0  0.7552725240083106  0.5492043924546139  0.1641170021453853  1.0000
  H   H8        1.0  0.24472747619900334  0.4507956075859438  0.8358829977710669  1.0000
  H   H9        1.0  0.3097949766534153  0.08760777399229862  0.08328383421707299  1.0000
  H   H10       1.0  0.6902050235538982  0.9123922260482593  0.9167161656993792  1.0000
  H   H11       1.0  0.11778623507123176  0.8580154326797568  0.0564281713582911  1.0000
  H   H12       1.0  0.8822137643285521  0.14198456736014153  0.9435718285584856  1.0000
  H   H13       1.0  0.5180673040558589  0.2517782720509604  0.19469808918541542  1.0000
  H   H14       1.0  0.48193269593875215  0.7482217277726414  0.8053019113787866  1.0000
  H   H15       1.0  0.3316067082375849  0.8274325992761021  0.981595742650198  1.0000
  H   H16       1.0  0.6683932919697289  0.17256740076445573  0.018404257266254102  1.0000
  H   H17       1.0  0.5351904086868664  0.045804363114879384  0.24700361117811517  1.0000
  H   H18       1.0  0.4648095915204474  0.9541956369256784  0.752996388738337  1.0000
  H   H19       1.0  0.5497908033080531  0.6591807608167202  0.2225334825126647  1.0000
  H   H20       1.0  0.4502091968992607  0.34081923922383783  0.7774665174037875  1.0000
  H   H21       1.0  0.39281395697075855  0.37777804170842066  0.09217397959299085  1.0000
  H   H22       1.0  0.6071860424290252  0.6222219583314776  0.9078260203237859  1.0000
  H   H23       1.0  0.044678255918167015  0.8964347643215405  0.20426319654909203  1.0000
  H   H24       1.0  0.9553217434816167  0.10356523571835789  0.7957368033676847  1.0000
  H   H25       1.0  0.29281165414699134  0.2942191439970439  0.03222471440528456  1.0000
  H   H26       1.0  0.7071883460603225  0.7057808560435139  0.9677752855111676  1.0000
  H   H27       1.0  0.24721823752268005  0.0185340467296931  0.32870190501411145  1.0000
  H   H28       1.0  0.7527817626846337  0.981465953310865  0.6712980949023407  1.0000
  H   H29       1.0  0.19787863842259235  0.9733333143153541  0.4912369879074718  1.0000
  H   H30       1.0  0.8021213617847215  0.02666668572520375  0.5087630120089803  1.0000
  H   H31       1.0  0.6523440108273612  0.9726111973141729  0.09787927008375141  1.0000
  H   H32       1.0  0.3476559893799525  0.02738880272638508  0.9021207298327008  1.0000
  H   H33       1.0  0.9083419436103836  0.6506956913255499  0.0703058821517829  1.0000
  H   H34       1.0  0.09165805659693026  0.34930430871500795  0.9296941177646693  1.0000
  H   H35       1.0  0.1841038079195073  0.9069275603686043  0.2726936540917006  1.0000
  H   H36       1.0  0.8158961914802766  0.09307243967129394  0.7273063458250761  1.0000
  H   H37       1.0  0.8562022726095789  0.8612338287839123  0.03640627529262848  1.0000
  H   H38       1.0  0.14379772759773501  0.13876617125664553  0.9635937246238236  1.0000
  H   H39       1.0  0.21942809405481764  0.6338512708271524  0.15860845816010025  1.0000
  H   H40       1.0  0.7805719053449659  0.366148729212746  0.8413915417566765  1.0000
  H   H41       1.0  0.4407563181810475  0.5724085179670204  0.39676654320632143  1.0000
  H   H42       1.0  0.5592436812187365  0.42759148207287784  0.6032334567104553  1.0000
  H   H43       1.0  0.0697456919679236  0.6727640897366349  0.38970970208698213  1.0000
  H   H44       1.0  0.9302543074318603  0.3272359103032633  0.6102902978297947  1.0000
  H   H45       1.0  0.8722812904049168  0.5203966344350982  0.45690677023367415  1.0000
  H   H46       1.0  0.12771870899486698  0.4796033656048001  0.5430932296831026  1.0000
  H   H47       1.0  0.3284711012715678  0.40068639921714666  0.2761978377813664  1.0000
  H   H48       1.0  0.6715288989357461  0.599313600823411  0.7238021621350857  1.0000
  H   H49       1.0  0.9806629484181383  0.09355774510245299  0.5246166504114531  1.0000
  H   H50       1.0  0.019337051789175403  0.9064422549381049  0.475383349504999  1.0000
  H   H51       1.0  0.653493635953264  0.8630156004015525  0.3802871714166828  1.0000
  H   H52       1.0  0.34650636425404996  0.13698439963900538  0.6197128284997694  1.0000
  H   H53       1.0  0.028420975934499708  0.39041090136537443  0.2050508432623702  1.0000
  H   H54       1.0  0.971579024272814  0.6095890986751835  0.794949156654082  1.0000
  H   H55       1.0  0.07225305272540383  0.41310807491351886  0.04908810552787121  1.0000
  H   H56       1.0  0.9277469466743801  0.5868919251263794  0.9509118943889056  1.0000
  H   H57       1.0  0.23195644259006246  0.7000817292997947  0.4294568676651022  1.0000
  H   H58       1.0  0.7680435568097213  0.2999182707401036  0.5705431322516746  1.0000
  H   H59       1.0  0.26408653927321024  0.6555116546247313  0.00026447784380383724  1.0000
  H   H60       1.0  0.7359134609341035  0.3444883454158267  0.9997355220726483  1.0000
  H   H61       1.0  0.8919696160832807  0.40292272771641435  0.32860443190059013  1.0000
  H   H62       1.0  0.10803038412403287  0.5970772723241436  0.671395568015862  1.0000
  H   H63       1.0  0.1917992928885621  0.5458970926103114  0.9450446210696546  1.0000
  H   H64       1.0  0.8082007073187516  0.45410290743024656  0.0549553788467975  1.0000
  H   H65       1.0  0.9737017127040891  0.7310275060210892  0.19926443724281329  1.0000
  H   H66       1.0  0.026298287503224556  0.26897249401946854  0.8007355626736389  1.0000
  H   H67       1.0  0.4877316063618638  0.42491133331492664  0.321121741900427  1.0000
  H   H68       1.0  0.5122683936327473  0.5750886665086751  0.6788782586637749  1.0000
  H   H69       1.0  0.8546990231900818  0.2206786971693273  0.4199443200318961  1.0000
  H   H70       1.0  0.14530097701723202  0.7793213028712306  0.5800556798845561  1.0000
  H   H71       1.0  0.7937521825327463  0.8891788294091328  0.2346197037625653  1.0000
  H   H72       1.0  0.20624781767456746  0.11082117063142491  0.7653802961538868  1.0000
  H   H73       1.0  0.15346220807265204  0.1443532222975931  0.5279188035553876  1.0000
  H   H74       1.0  0.846537792134662  0.8556467777429647  0.47208119636106455  1.0000
  H   H75       1.0  0.6865375650552024  0.6772016695886794  0.4873447806850291  1.0000
  H   H76       1.0  0.3134624351521116  0.32279833045187833  0.5126552192314231  1.0000
  H   H77       1.0  0.20139759693262033  0.32022318445755904  0.42857945749553383  1.0000
  H   H78       1.0  0.7986024032746932  0.679776815582999  0.5714205424209183  1.0000
  H   H79       1.0  0.895653099395282  0.005026074497976691  0.133965630412064  1.0000
  H   H80       1.0  0.10434690081203163  0.9949739255425812  0.8660343695043882  1.0000
  H   H81       1.0  0.4759431685434155  0.5767205251377912  0.11621917451924664  1.0000
  H   H82       1.0  0.5240568316638984  0.42327947490276663  0.8837808253972056  1.0000
  H   H83       1.0  0.5621796834928102  0.44489756699231686  0.1396050606074257  1.0000
  H   H84       1.0  0.43782031671450355  0.5551024330482413  0.8603949393090263  1.0000
  H   H85       1.0  0.5564307899415035  0.5129471229541677  0.038745722093840015  1.0000
  H   H86       1.0  0.4435692102658104  0.48705287708639006  0.9612542778226122  1.0000
  H   H87       1.0  0.7229360599840291  0.530320814712327  0.34268609364699537  1.0000
  H   H88       1.0  0.277063940010582  0.4696791851112747  0.6573139069172066  1.0000
  H   H89       1.0  0.6717712749903888  0.42408817172028435  0.3531557122813049  1.0000
  H   H90       1.0  0.3282287252169249  0.5759118283202734  0.6468442876351473  1.0000
  H   H91       1.0  0.6403197780146265  0.47785896006206036  0.4357186292446248  1.0000
  H   H92       1.0  0.3596802213851575  0.5221410399778379  0.564281370672152  1.0000
  H   H93       1.0  0.620907179746077  0.8902177800772293  0.5948250241693828  1.0000
  H   H94       1.0  0.37909282046123666  0.1097822199633285  0.4051749757470694  1.0000
  H   H95       1.0  0.4936570970263759  0.9430797992784112  0.5660813133334697  1.0000
  H   H96       1.0  0.5063429031809379  0.05692020076214655  0.43391868658298255  1.0000
  H   H97       1.0  0.5466059267458047  0.8053550994217993  0.5998824995295601  1.0000
  H   H98       1.0  0.4533940734615091  0.1946449006187586  0.4001175003868921  1.0000
  C   C1        1.0  0.4026174593348031  0.8686555915439951  0.3231889883462029  1.0000
  C   C2        1.0  0.5973825408725107  0.13134440849656256  0.6768110115702494  1.0000
  C   C3        1.0  0.4738967924838159  0.771608241150753  0.3713290993094222  1.0000
  C   C4        1.0  0.5261032077234978  0.22839175888980473  0.62867090060703  1.0000
  C   C5        1.0  0.5877861606343041  0.8234787507612314  0.1643580064945132  1.0000
  C   C6        1.0  0.4122138387654795  0.17652124927866686  0.8356419934222636  1.0000
  C   C7        1.0  0.4238830495402305  0.053096066792806464  0.1680072359552099  1.0000
  C   C8        1.0  0.5761169498595532  0.9469039332470917  0.831992763961567  1.0000
  C   C9        1.0  0.7321131255382406  0.6421830472726009  0.14888028609019982  1.0000
  C   C10       1.0  0.26788687466907324  0.35781695276795683  0.8511197138262524  1.0000
  C   C11       1.0  0.7890142040251588  0.8176090953515158  0.07803852398634152  1.0000
  C   C12       1.0  0.21098579618215507  0.18239090468904198  0.9219614759301106  1.0000
  C   C13       1.0  0.3806309880087886  0.8499952497012451  0.0841828257761573  1.0000
  C   C14       1.0  0.6193690121985252  0.1500047503393128  0.9158171741402948  1.0000
  C   C15       1.0  0.17971747165024524  0.8611311050710628  0.08813052713577371  1.0000
  C   C16       1.0  0.8202825277495387  0.1388688949688353  0.911869472781003  1.0000
  C   C17       1.0  0.34630839811876235  0.8217727534578179  0.5030856589839994  1.0000
  C   C18       1.0  0.6536916020885513  0.1782272465827399  0.4969143409324528  1.0000
  C   C19       1.0  0.3389472202431146  0.8736631004301522  0.16593187596870412  1.0000
  C   C20       1.0  0.6610527799641994  0.12633689961040578  0.834068123947748  1.0000
  C   C21       1.0  0.30208525428745703  0.9426155534709583  0.3655846249544608  1.0000
  C   C22       1.0  0.6979147451123267  0.05738444656894012  0.634415374962316  1.0000
  C   C23       1.0  0.27460595746138095  0.9182758392919353  0.4556002415670442  1.0000
  C   C24       1.0  0.7253940417257003  0.08172416053100691  0.5443997589974824  1.0000
  C   C25       1.0  0.44355622563046204  0.7496676119288744  0.46107013302681704  1.0000
  C   C26       1.0  0.5564437737693219  0.2503323881110239  0.5389298668899597  1.0000
  C   C27       1.0  0.21807781857065486  0.8883856418603407  0.20936404624202778  1.0000
  C   C28       1.0  0.7819221816366589  0.11161435818021721  0.7906359536744244  1.0000
  C   C29       1.0  0.818078856028301  0.6989371925777722  0.0966479880443335  1.0000
  C   C30       1.0  0.18192114417901264  0.30106280746278563  0.9033520118721187  1.0000
  C   C31       1.0  0.40167679362171366  0.2865047489781924  0.11187233816484743  1.0000
  C   C32       1.0  0.5983232065856003  0.7134952510623653  0.8881276617516047  1.0000
  C   C33       1.0  0.3556558761919881  0.12329437943480889  0.10751337505285957  1.0000
  C   C34       1.0  0.6443441240153255  0.8767056206057491  0.8924866248635925  1.0000
  C   C35       1.0  0.6165086496166234  0.7040131021676602  0.18216612005206292  1.0000
  C   C36       1.0  0.38349135059069056  0.2959868978728975  0.8178338798643893  1.0000
  C   C37       1.0  0.13883629571596073  0.8820440357202322  0.1701274284299038  1.0000
  C   C38       1.0  0.861163704491353  0.11795596432032594  0.8298725714865484  1.0000
  C   C39       1.0  0.481674210229618  0.09959568797134882  0.20007144753490413  1.0000
  C   C40       1.0  0.5183257891701658  0.9004043120685493  0.7999285523818728  1.0000
  C   C41       1.0  0.3006335560716041  0.8438690634616209  0.045606692036726584  1.0000
  C   C42       1.0  0.6993664441357099  0.1561309365789369  0.9543933078797255  1.0000
  C   C43       1.0  0.4707732889156952  0.2161326462358364  0.1713943811244292  1.0000
  C   C44       1.0  0.5292267112916186  0.7838673538047214  0.828605618792023  1.0000
  C   C45       1.0  0.6742576252393861  0.8801509415483175  0.1121228108804405  1.0000
  C   C46       1.0  0.32574237496792763  0.1198490584922403  0.8878771890360115  1.0000
  C   C47       1.0  0.3454093415680164  0.2398848946122565  0.07940647937281668  1.0000
  C   C48       1.0  0.6545906586392973  0.7601151054283013  0.9205935205436355  1.0000
  C   C49       1.0  0.9518809575683124  0.3455598722617036  0.37011564829471455  1.0000
  C   C50       1.0  0.04811904242629884  0.6544401275618982  0.6298843522694874  1.0000
  C   C51       1.0  0.16108981932108835  0.618457305659379  0.37488706957578555  1.0000
  C   C52       1.0  0.8389101806735227  0.38154269416422276  0.6251129309884164  1.0000
  C   C53       1.0  0.05044359212053973  0.3735254681876338  0.3713410598654392  1.0000
  C   C54       1.0  0.949556408086774  0.626474531852924  0.628658940051013  1.0000
  C   C55       1.0  0.36856431700132447  0.5626609582564985  0.37927910304352364  1.0000
  C   C56       1.0  0.6314356829932867  0.43733904156710335  0.6207208975206784  1.0000
  C   C57       1.0  0.18696686766350856  0.5861498102697722  0.13436328576477952  1.0000
  C   C58       1.0  0.813033132543805  0.4138501897707856  0.8656367141516726  1.0000
  C   C59       1.0  0.8553307450315475  0.6009424218297171  0.40796626911139666  1.0000
  C   C60       1.0  0.14466925517576623  0.3990575782108408  0.5920337308050556  1.0000
  C   C61       1.0  0.7317407262030323  0.7934502856805783  0.3641032633414546  1.0000
  C   C62       1.0  0.2682592740042814  0.20654971435997949  0.6358967365749976  1.0000
  C   C63       1.0  0.18874956828916878  0.5335878281615777  0.33218991196920244  1.0000
  C   C64       1.0  0.8112504317054424  0.46641217166202387  0.6678100885949996  1.0000
  C   C65       1.0  0.21274658452970546  0.5975194735316967  0.04566130563004687  1.0000
  C   C66       1.0  0.7872534156776083  0.40248052650886135  0.9543386942864053  1.0000
  C   C67       1.0  0.7522883219701648  0.6890686185404684  0.42575807455102693  1.0000
  C   C68       1.0  0.24771167823714885  0.31093138150008975  0.5742419253654253  1.0000
  C   C69       1.0  0.8112007961048238  0.8082034235520357  0.282907344894548  1.0000
  C   C70       1.0  0.18879920410249013  0.19179657648852216  0.7170926550219041  1.0000
  C   C71       1.0  0.0009872321859059003  0.17153728057724096  0.4803965530530394  1.0000
  C   C72       1.0  0.9990127680214081  0.8284627194633168  0.5196034468634128  1.0000
  C   C73       1.0  0.12491005066349917  0.2994497702292082  0.426811653127238  1.0000
  C   C74       1.0  0.8750899495438147  0.7005502298113495  0.5731883467892142  1.0000
  C   C75       1.0  0.936245123975551  0.6166872496998047  0.3265049215125565  1.0000
  C   C76       1.0  0.06375487623176292  0.3833127503407531  0.6734950784038957  1.0000
  C   C77       1.0  0.11930218783886244  0.5124221066141348  0.19211108897074927  1.0000
  C   C78       1.0  0.8806978115609212  0.4875778934257636  0.8078889109460275  1.0000
  C   C79       1.0  0.39598659091930544  0.4787114036182451  0.33613541598445545  1.0000
  C   C80       1.0  0.6040134092880085  0.5212885964223128  0.6638645839319965  1.0000
  C   C81       1.0  0.2520350943441005  0.6332761919786469  0.39750642816164283  1.0000
  C   C82       1.0  0.7479649058632132  0.3667238080619108  0.6024935717548093  1.0000
  C   C83       1.0  0.17160312232082278  0.5357229874157999  0.0146563774154755  1.0000
  C   C84       1.0  0.8283968778864912  0.46427701262475807  0.9853436225009765  1.0000
  C   C85       1.0  0.9128219863636111  0.7198812265026782  0.2632199595279261  1.0000
  C   C86       1.0  0.08717801363100008  0.28011877332092366  0.7367800410362758  1.0000
  C   C87       1.0  0.9291126463396742  0.24336849404273372  0.42317140939584263  1.0000
  C   C88       1.0  0.07088735386763954  0.7566315059978242  0.5768285905206095  1.0000
  C   C89       1.0  0.306827380641912  0.4644165616001809  0.3115822721097318  1.0000
  C   C90       1.0  0.6931726187578717  0.5355834384397172  0.688417727807045  1.0000
  C   C91       1.0  0.10481712662115815  0.46207007250972965  0.07230363960568045  1.0000
  C   C92       1.0  0.8951828735861557  0.5379299275308282  0.9276963603107716  1.0000
  C   C93       1.0  0.07928530535309186  0.4494092248312817  0.1611150106152566  1.0000
  C   C94       1.0  0.9207146948542221  0.5505907752092762  0.8388849893011956  1.0000
  C   C95       1.0  0.09842366094001884  0.19970270219545275  0.48236005249516234  1.0000
  C   C96       1.0  0.9015763384597649  0.8002972978444455  0.5176399474216145  1.0000
  N   N1        1.0  0.5054664858970801  0.5002364373161342  0.1007858452982037  1.0000
  N   N2        1.0  0.49453351431023357  0.49976356272442374  0.8992141546182485  1.0000
  N   N3        1.0  0.6508527093683688  0.4987391312281825  0.37018908828770797  1.0000
  N   N4        1.0  0.3491472906262423  0.5012608685954193  0.629810912276494  1.0000
  N   N5        1.0  0.5713353792380986  0.8776942576809154  0.5630792695954971  1.0000
  N   N6        1.0  0.4286646207565125  0.1223057421426863  0.4369207309687048  1.0000
  P   P1        1.0  0.4381631215795682  0.9027528412375336  0.20715360752595163  1.0000
  P   P2        1.0  0.5618368786277455  0.09724715880302427  0.7928463923905005  1.0000
  P   P3        1.0  0.07432207244204712  0.5080195299920228  0.30533812720716474  1.0000
  P   P4        1.0  0.9256779277652667  0.49198047004853496  0.6946618727092875  1.0000
  P   P5        1.0  0.896491293488339  0.0306121013391159  0.3277398036155211  1.0000
  P   P6        1.0  0.10350870591144469  0.9693878987007825  0.6722601963012558  1.0000
  P   P7        1.0  0.9991451121950501  0.14539473536576344  0.24562837655435577  1.0000
  P   P8        1.0  0.0008548880122636011  0.8546052646747945  0.7543716233620964  1.0000
  P   P9        1.0  0.7394523300586012  0.10134848627643994  0.2741268581995724  1.0000
  P   P10       1.0  0.26054767014871266  0.8986515137641179  0.7258731417168797  1.0000
  P   P11       1.0  0.8195108402159175  0.11904019648359648  0.13411130272821203  1.0000
  P   P12       1.0  0.18048915999139645  0.8809598035569614  0.8658886971882401  1.0000
  P   P13       1.0  0.6903689554385858  0.2862454591060882  0.2553247797453915  1.0000
  P   P14       1.0  0.30963104476872794  0.7137545409344698  0.7446752201710607  1.0000
  P   P15       1.0  0.9666652754843379  0.19007063782586414  0.11365175572091749  1.0000
  P   P16       1.0  0.03333472472297586  0.8099293622146937  0.8863482441955347  1.0000
  P   P17       1.0  0.8641869673208189  0.31175986720881055  0.197110225335976  1.0000
  P   P18       1.0  0.1358130326737924  0.6882401326147909  0.802889775228226  1.0000
