data_image0
_chemical_formula_structural       H30C34N2O8S4
_chemical_formula_sum              "H30 C34 N2 O8 S4"
_cell_length_a       7.786871446673319
_cell_length_b       9.596715725494288
_cell_length_c       12.0467915854717
_cell_angle_alpha    69.46794163371096
_cell_angle_beta     74.83966626015376
_cell_angle_gamma    77.38449462059141

_space_group_name_H-M_alt    "P 1"
_space_group_IT_number       1

loop_
  _space_group_symop_operation_xyz
  'x, y, z'

loop_
  _atom_site_type_symbol
  _atom_site_label
  _atom_site_symmetry_multiplicity
  _atom_site_fract_x
  _atom_site_fract_y
  _atom_site_fract_z
  _atom_site_occupancy
  H   H1        1.0  0.21279799501409077  0.6490395529779479  0.16126251548287474  1.0000
  H   H2        1.0  0.7872020041977175  0.3509604459523734  0.8387374846017752  1.0000
  H   H3        1.0  0.4968914136369134  0.6786933063603561  0.19878520561836402  1.0000
  H   H4        1.0  0.5031085867200277  0.32130669369156906  0.8012147939624746  1.0000
  H   H5        1.0  0.7638373196307418  0.48154414844792737  0.1954095892040511  1.0000
  H   H6        1.0  0.2361626793940015  0.5184558516034339  0.804590411431132  1.0000
  H   H7        1.0  0.7463787747896035  0.24398595258081368  0.16067222094821515  1.0000
  H   H8        1.0  0.2536212255673378  0.7560140474711112  0.8393277786326234  1.0000
  H   H9        1.0  0.40139900495165026  0.06605462705591499  0.9213078632931209  1.0000
  H   H10       1.0  0.5986009954039739  0.9339453729932568  0.0786921371188029  1.0000
  H   H11       1.0  0.22040777856379026  0.9745467393411138  0.933302316639422  1.0000
  H   H12       1.0  0.7795922217918339  0.02545326070805787  0.06669768377250172  1.0000
  H   H13       1.0  0.43519510430902264  0.040471281657302176  0.7455630251111419  1.0000
  H   H14       1.0  0.5648048949014686  0.9595287172702659  0.2544369758045934  1.0000
  H   H15       1.0  0.5484194499102263  0.09469496758364788  0.526223971057597  1.0000
  H   H16       1.0  0.4515805504467148  0.9053050324682771  0.4737760285232416  1.0000
  H   H17       1.0  0.41910056032639403  0.327034999347839  0.3821310723667226  1.0000
  H   H18       1.0  0.5808994400305472  0.672965000704086  0.6178689272141158  1.0000
  H   H19       1.0  0.057691263065272363  0.45006208548182014  0.6822377520743818  1.0000
  H   H20       1.0  0.9423087372916689  0.5499379145701049  0.3177622475064567  1.0000
  H   H21       1.0  0.17548825067413812  0.5053939031679909  0.45890050887679984  1.0000
  H   H22       1.0  0.824511749682803  0.494606096883934  0.5410994907040387  1.0000
  H   H23       1.0  0.8762139724183119  0.1682874812099581  0.3872923593685606  1.0000
  H   H24       1.0  0.12378602793731236  0.8317125188392135  0.6127076410433632  1.0000
  H   H25       1.0  0.9581343586400854  0.9087000534993664  0.3883933378620199  1.0000
  H   H26       1.0  0.041865640384657704  0.09129994655199482  0.6116066627731632  1.0000
  H   H27       1.0  0.18328376362131707  0.822813852455225  0.40166652633004857  1.0000
  H   H28       1.0  0.816716236735624  0.1771861475967  0.59833347325079  1.0000
  H   H29       1.0  0.046943712832289826  0.2575922185133336  0.40014921191271335  1.0000
  H   H30       1.0  0.9530562875246514  0.7424077815385914  0.5998507876681252  1.0000
  C   C1        1.0  0.2693130352151756  0.2002988242302021  0.11828933757107464  1.0000
  C   C2        1.0  0.7306869651417655  0.799701175821723  0.8817106620097639  1.0000
  C   C3        1.0  0.4668162837233398  0.31052461470962733  0.14599990770561103  1.0000
  C   C4        1.0  0.5331837166322844  0.6894753853395443  0.8540000927063128  1.0000
  C   C5        1.0  0.3159447819697246  0.4257083954670618  0.14558162303945008  1.0000
  C   C6        1.0  0.6840552183872165  0.5742916045848634  0.8544183765413885  1.0000
  C   C7        1.0  0.3264864449976641  0.5599128385424674  0.16328673217110057  1.0000
  C   C8        1.0  0.6735135553592769  0.44008716150945765  0.8367132674097382  1.0000
  C   C9        1.0  0.48852944873227794  0.5759524110070205  0.18255902700076415  1.0000
  C   C10       1.0  0.5114705516233463  0.424047589042151  0.8174409734111597  1.0000
  C   C11       1.0  0.6386678219476856  0.46349310988874115  0.1818060560638287  1.0000
  C   C12       1.0  0.36133217840925563  0.5365068901631839  0.8181939435170099  1.0000
  C   C13       1.0  0.6302406052451603  0.33079913298912283  0.16300828380701565  1.0000
  C   C14       1.0  0.36975939511178074  0.6692008670628022  0.8369917157738228  1.0000
  C   C15       1.0  0.25401619851603763  0.07461512922675718  0.9431438504513758  1.0000
  C   C16       1.0  0.7459838018395867  0.9253848708224145  0.056856149960547976  1.0000
  C   C17       1.0  0.16795246866717803  0.21573481303409048  0.8594098798599784  1.0000
  C   C18       1.0  0.8320475316897631  0.7842651870178345  0.14059011972086022  1.0000
  C   C19       1.0  0.2366886761331161  0.24192549063357643  0.7280859719418172  1.0000
  C   C20       1.0  0.7633113242225081  0.7580745094155952  0.2719140284701066  1.0000
  C   C21       1.0  0.3751443977775322  0.1416466374906197  0.6838806222893535  1.0000
  C   C22       1.0  0.624855602579409  0.8583533625613055  0.3161193772914849  1.0000
  C   C23       1.0  0.439670365801988  0.17234877746892968  0.5596114235906385  1.0000
  C   C24       1.0  0.5603296345536364  0.8276512225802418  0.4403885768212853  1.0000
  C   C25       1.0  0.36727867755139604  0.3026992022500241  0.47905297812486075  1.0000
  C   C26       1.0  0.632721322805545  0.697300797801901  0.5209470214559778  1.0000
  C   C27       1.0  0.16412310362567395  0.37295332414714477  0.6464154703414227  1.0000
  C   C28       1.0  0.8358768967299502  0.6270466759020267  0.3535845300705011  1.0000
  C   C29       1.0  0.22976513284160074  0.4031465344713081  0.5225594588777571  1.0000
  C   C30       1.0  0.7702348675153402  0.5968534655806169  0.47744054070308145  1.0000
  C   C31       1.0  0.0697784966231715  0.9003760326005139  0.43228068523717944  1.0000
  C   C32       1.0  0.9302215024028887  0.09962396745360089  0.5677193145669185  1.0000
  C   C33       1.0  0.9909429618448188  0.1516071678039538  0.43103967085842043  1.0000
  C   C34       1.0  0.009057038510805415  0.8483928322452179  0.5689603295535035  1.0000
  N   N1        1.0  0.43495232158941727  0.18374397948237325  0.12998219086515514  1.0000
  N   N2        1.0  0.5650476787662069  0.8162560205667982  0.8700178095467687  1.0000
  O   O1        1.0  0.993817662097135  0.07021444383188707  0.13928495391921264  1.0000
  O   O2        1.0  0.006182338259806098  0.9297855562200379  0.8607150456616259  1.0000
  O   O3        1.0  0.2919848151844632  0.9115305441997245  0.1592180311813914  1.0000
  O   O4        1.0  0.708015185172478  0.08846945585220065  0.8407819683994471  1.0000
  O   O5        1.0  0.049049825881202255  0.3042937533057828  0.8995039686504127  1.0000
  O   O6        1.0  0.950950174474422  0.6957062467433889  0.10049603176151108  1.0000
  O   O7        1.0  0.13127354661523916  0.04418230206962168  0.39196025798661516  1.0000
  O   O8        1.0  0.8687264537403849  0.9558176979795501  0.6080397424253087  1.0000
  S   S1        1.0  0.13575317003624446  0.369435334864998  0.12107528580779181  1.0000
  S   S2        1.0  0.8642468303206967  0.6305646651869271  0.8789247137730468  1.0000
  S   S3        1.0  0.18763092352111846  0.050813657548989456  0.1014070375666867  1.0000
  S   S4        1.0  0.8123690768358227  0.9491863425029355  0.8985929620141518  1.0000
