data_image0
_chemical_formula_structural       H60C60N8O16
_chemical_formula_sum              "H60 C60 N8 O16"
_cell_length_a       4.4051315648460125
_cell_length_b       25.80345458653212
_cell_length_c       11.784717271162203
_cell_angle_alpha    90.0
_cell_angle_beta     91.66432496917948
_cell_angle_gamma    90.0

_space_group_name_H-M_alt    "P 1"
_space_group_IT_number       1

loop_
  _space_group_symop_operation_xyz
  'x, y, z'

loop_
  _atom_site_type_symbol
  _atom_site_label
  _atom_site_symmetry_multiplicity
  _atom_site_fract_x
  _atom_site_fract_y
  _atom_site_fract_z
  _atom_site_occupancy
  H   H1        1.0  0.40430285121518  0.7756491094198817  0.140412000555068  1.0000
  H   H2        1.0  0.09569714917061876  0.2756491091589112  0.35958799925027224  1.0000
  H   H3        1.0  0.5956971495564176  0.2243508907145143  0.8595879990556125  1.0000
  H   H4        1.0  0.904302851571067  0.7243508905879398  0.6404120012085665  1.0000
  H   H5        1.0  0.7450159262069892  0.8539851904752851  0.12956780083531316  1.0000
  H   H6        1.0  0.7549840721883198  0.3539851906018596  0.37043219942915123  1.0000
  H   H7        1.0  0.2549840722638558  0.1460148092715659  0.8704321995876956  1.0000
  H   H8        1.0  0.24501592628252514  0.6460148095325364  0.6295678009938576  1.0000
  H   H9        1.0  0.960818685002915  0.878850054900643  0.9486521737698924  1.0000
  H   H10       1.0  0.5391813161544813  0.3788500546396725  0.5513478256461283  1.0000
  H   H11       1.0  0.039181315768682556  0.12114994523375304  0.05134782584078804  1.0000
  H   H12       1.0  0.4608186846171162  0.6211499451071786  0.4486521739645522  1.0000
  H   H13       1.0  0.14571146768688692  0.7060239453173316  0.05376620124266512  1.0000
  H   H14       1.0  0.35428853269891186  0.206023945443906  0.4462337985626751  1.0000
  H   H15       1.0  0.8542885330847106  0.29397605481706446  0.9462337983680152  1.0000
  H   H16       1.0  0.6457114680726856  0.79397605469049  0.5537662010480053  1.0000
  H   H17       1.0  0.15549415268528802  0.6211870568046371  0.06522057857354963  1.0000
  H   H18       1.0  0.34450584770051074  0.12118705693121157  0.43477942123179053  1.0000
  H   H19       1.0  0.8445058480863096  0.37881294332975896  0.9347794210371309  1.0000
  H   H20       1.0  0.6554941530710868  0.8788129432031845  0.5652205783788898  1.0000
  H   H21       1.0  0.8496126793439986  0.5400036736659558  0.07238934291147947  1.0000
  H   H22       1.0  0.6503873213221513  0.040003673792530274  0.4276106573888149  1.0000
  H   H23       1.0  0.15038732142759895  0.45999632646844024  0.9276106566992011  1.0000
  H   H24       1.0  0.34961267941953456  0.9599963263418658  0.5723893430700239  1.0000
  H   H25       1.0  0.5362915718098841  0.514368777075588  0.8962645035470904  1.0000
  H   H26       1.0  0.9637084270766715  0.014368777202162574  0.6037354958331003  1.0000
  H   H27       1.0  0.4637084289617136  0.48563122267126296  0.10373549606358995  1.0000
  H   H28       1.0  0.03629157142408523  0.9856312229322335  0.39626450374175026  1.0000
  H   H29       1.0  0.8071019532655787  0.6445977868669324  0.7230503936792873  1.0000
  H   H30       1.0  0.6928980456209768  0.14459778699350692  0.7769496057009033  1.0000
  H   H31       1.0  0.19289804750601883  0.35540221326746363  0.27694960593139306  1.0000
  H   H32       1.0  0.30710195287978  0.855402213140889  0.22305039387394712  1.0000
  H   H33       1.0  0.9299604455205324  0.9069708666922055  0.7578820297768911  1.0000
  H   H34       1.0  0.5700395556368639  0.40697086681878  0.7421179696391295  1.0000
  H   H35       1.0  0.0700395552510651  0.09302913344219055  0.2421179698337893  1.0000
  H   H36       1.0  0.42996044513473375  0.593029133315616  0.2578820299715509  1.0000
  H   H37       1.0  0.13525142672456913  0.871760579753564  0.6535675862821443  1.0000
  H   H38       1.0  0.3647485741225644  0.3717605798801385  0.8464324134870804  1.0000
  H   H39       1.0  0.8647485740171167  0.128239420380832  0.3464324141766944  1.0000
  H   H40       1.0  0.6352514266490332  0.6282394202542575  0.15356758612359994  1.0000
  H   H41       1.0  0.2550402858919899  0.8688183690605964  0.7993143231652403  1.0000
  H   H42       1.0  0.24495971268430278  0.36881836918717087  0.7006856765681546  1.0000
  H   H43       1.0  0.744959712578855  0.13118163107379965  0.20068567725776854  1.0000
  H   H44       1.0  0.755040285816454  0.6311816309472251  0.29931432300669586  1.0000
  H   H45       1.0  0.35959830537380066  0.7161772164276557  0.7842208934320491  1.0000
  H   H46       1.0  0.140401695443421  0.21617721655423028  0.715779107185334  1.0000
  H   H47       1.0  0.6404016953678852  0.28382278370674024  0.21577910702678954  1.0000
  H   H48       1.0  0.8595983052982648  0.7838227835801658  0.2842208932735048  1.0000
  H   H49       1.0  0.48136438569963663  0.5580115833604402  0.7046096953895169  1.0000
  H   H50       1.0  0.018635612846744296  0.05801158309946968  0.7953903051920362  1.0000
  H   H51       1.0  0.5186356127712084  0.44198841677395584  0.2953903050334919  1.0000
  H   H52       1.0  0.9813643856241007  0.9419884166473813  0.20460969523097253  1.0000
  H   H53       1.0  0.8103284129414546  0.4655826769129748  0.5788383117589115  1.0000
  H   H54       1.0  0.6896715859151891  0.9655826771739453  0.9211616884694375  1.0000
  H   H55       1.0  0.18967158552939029  0.5344173228338762  0.4211616886640972  1.0000
  H   H56       1.0  0.3103284125855677  0.03441732296045075  0.07883831110541305  1.0000
  H   H57       1.0  0.15535674491942147  0.4473460141273023  0.5203468347503198  1.0000
  H   H58       1.0  0.34464325592771206  0.9473460143882728  0.979653165018905  1.0000
  H   H59       1.0  0.8446432558521761  0.5526539856195487  0.4796531648603607  1.0000
  H   H60       1.0  0.6553567448139738  0.05265398574612322  0.020346835439933708  1.0000
  C   C1        1.0  0.4373722181431757  0.7581321463913764  0.9626820302019983  1.0000
  C   C2        1.0  0.06262778043311702  0.25813214651795086  0.5373179695313965  1.0000
  C   C3        1.0  0.5626277803575811  0.24186785374301967  0.03731796937285222  1.0000
  C   C4        1.0  0.937372218037728  0.7418678536164451  0.4626820308916122  1.0000
  C   C5        1.0  0.5045193617236208  0.7877118938410987  0.06121305910241834  1.0000
  C   C6        1.0  0.9954806366716883  0.2877118935801282  0.43878694116204603  1.0000
  C   C7        1.0  0.4954806367472241  0.2122881062932973  0.9387869413205904  1.0000
  C   C8        1.0  0.004519361829068537  0.7122881061667228  0.5612130584128044  1.0000
  C   C9        1.0  0.6910984088363663  0.8305093121595122  0.05488964373423235  1.0000
  C   C10       1.0  0.8089015918596953  0.3305093122860867  0.44511035571790364  1.0000
  C   C11       1.0  0.30890159193523126  0.16949068797488384  0.9451103558764481  1.0000
  C   C12       1.0  0.1910984089119022  0.6694906878483093  0.5548896438927767  1.0000
  C   C13       1.0  0.8153559015661483  0.8448773545763406  0.9510104652380345  1.0000
  C   C14       1.0  0.6846440972904955  0.34487735470291514  0.5489895349903146  1.0000
  C   C15       1.0  0.18464409920544933  0.15512264517051036  0.04898953437264596  1.0000
  C   C16       1.0  0.31535590118034945  0.6551226454314808  0.45101046543269424  1.0000
  C   C17       1.0  0.7562553944237802  0.816010839532701  0.8529431264347764  1.0000
  C   C18       1.0  0.7437446067336161  0.31601083965927557  0.6470568729812441  1.0000
  C   C19       1.0  0.24374460634781736  0.18398916060169493  0.14705687317590402  1.0000
  C   C20       1.0  0.2562553940379814  0.6839891604751204  0.3529431266294362  1.0000
  C   C21       1.0  0.5644873208662801  0.7720405321385824  0.8577887017059704  1.0000
  C   C22       1.0  0.9355126802612045  0.27204053226515684  0.6422112985582085  1.0000
  C   C23       1.0  0.4355126799053175  0.22795946799581368  0.14221129790471004  1.0000
  C   C24       1.0  0.06448732048048132  0.7279594678692393  0.35778870190063017  1.0000
  C   C25       1.0  0.23923906274576529  0.714199205311786  0.9700910419064608  1.0000
  C   C26       1.0  0.2607609358006156  0.21419920505081555  0.5299089586750922  1.0000
  C   C27       1.0  0.7607609357250796  0.28580079482260995  0.02990895851654787  1.0000
  C   C28       1.0  0.7392390626702293  0.7858007946960355  0.4700910417479165  1.0000
  C   C29       1.0  0.002485252579314166  0.6402280781668094  0.8940061015600008  1.0000
  C   C30       1.0  0.49751474599697854  0.14022807790583883  0.605993898173394  1.0000
  C   C31       1.0  0.9975147459214426  0.35977192196758667  0.10599389801484954  1.0000
  C   C32       1.0  0.5024852525037782  0.8597719218410123  0.39400610140145653  1.0000
  C   C33       1.0  0.012521982550934481  0.609591861324255  0.9926385694019938  1.0000
  C   C34       1.0  0.487478018296199  0.10959186145082955  0.507361430367231  1.0000
  C   C35       1.0  0.9874780182206631  0.3904081384225959  0.007361430208686663  1.0000
  C   C36       1.0  0.5125219824753985  0.8904081386835665  0.4926385692434494  1.0000
  C   C37       1.0  0.844117307589153  0.5640351027879948  0.9962791685234184  1.0000
  C   C38       1.0  0.6558826912674907  0.06403510252702432  0.5037208317049306  1.0000
  C   C39       1.0  0.1558826908816919  0.4359648973464012  0.0037208318995904633  1.0000
  C   C40       1.0  0.34411730720335426  0.9359648972198268  0.49627916871807803  1.0000
  C   C41       1.0  0.6712542163798177  0.5496932421367797  0.9006147552465573  1.0000
  C   C42       1.0  0.8287457847476667  0.049693242263354254  0.5993852450176216  1.0000
  C   C43       1.0  0.3287457843618681  0.4503067576100713  0.0993852452122813  1.0000
  C   C44       1.0  0.17125421599401894  0.9503067578710417  0.4006147554412173  1.0000
  C   C45       1.0  0.82295632169191  0.6224423879422324  0.8016960758498565  1.0000
  C   C46       1.0  0.6770436794355745  0.12244238806880686  0.6983039244143224  1.0000
  C   C47       1.0  0.17704367907968754  0.37755761180461866  0.19830392376082392  1.0000
  C   C48       1.0  0.32295632130611124  0.8775576120655891  0.30169607604451626  1.0000
  C   C49       1.0  0.057246489469410584  0.8713131753193522  0.7407008554292001  1.0000
  C   C50       1.0  0.44275350910688205  0.3713131754459266  0.7592991443041949  1.0000
  C   C51       1.0  0.9427535113021869  0.1286868244274989  0.2592991441814804  1.0000
  C   C52       1.0  0.5572464893938747  0.6286868243009244  0.24070085527065563  1.0000
  C   C53       1.0  0.19658484877985097  0.503229359326849  0.6512283762835063  1.0000
  C   C54       1.0  0.3034151520373707  0.003229359453423443  0.8487716243338769  1.0000
  C   C55       1.0  0.8034151519618348  0.49677064080754707  0.3487716241753325  1.0000
  C   C56       1.0  0.696584848704315  0.9967706406809727  0.15122837612496193  1.0000
  C   C57       1.0  0.02538784387788852  0.48113812312867255  0.5491179331123252  1.0000
  C   C58       1.0  0.4746121546984042  0.981138123002098  0.9508820666210697  1.0000
  C   C59       1.0  0.9746121546228683  0.5188618770057235  0.4508820664625254  1.0000
  C   C60       1.0  0.5253878438023526  0.018861877132297998  0.04911793295378072  1.0000
  N   N1        1.0  0.1717090966770454  0.6855007286207422  0.8816849681402855  1.0000
  N   N2        1.0  0.3282909018992473  0.18550072874731674  0.6183150315931092  1.0000
  N   N3        1.0  0.8282909018237113  0.3144992715136538  0.11831503143456483  1.0000
  N   N4        1.0  0.6717090966015095  0.8144992713870792  0.3816849679817412  1.0000
  N   N5        1.0  0.6623049330705594  0.5785914192199831  0.8057929236147627  1.0000
  N   N6        1.0  0.8376950680569252  0.07859141934655758  0.6942070766494162  1.0000
  N   N7        1.0  0.3376950677010382  0.4214085805268679  0.19420707599591772  1.0000
  N   N8        1.0  0.16230493268476062  0.9214085807878385  0.30579292380942247  1.0000
  O   O1        1.0  0.506012404697944  0.7450559484401102  0.76209414866825  1.0000
  O   O2        1.0  0.9939875964295406  0.24505594856668472  0.7379058515959289  1.0000
  O   O3        1.0  0.4939875960437418  0.2549440516942858  0.23790585179058865  1.0000
  O   O4        1.0  0.006012404312145191  0.7549440515677114  0.2620941488629098  1.0000
  O   O5        1.0  0.868042785712065  0.826433830729406  0.7485979853855891  1.0000
  O   O6        1.0  0.6319572154154196  0.32643383085598054  0.7514020148785899  1.0000
  O   O7        1.0  0.13195721502962074  0.17356616901744498  0.25140201507324966  1.0000
  O   O8        1.0  0.3680427853262663  0.6735661692784155  0.24859798558024887  1.0000
  O   O9        1.0  0.18317425019582453  0.48301259500753657  0.7461271292478733  1.0000
  O   O10       1.0  0.3168257483804681  0.983012594880962  0.7538728704855217  1.0000
  O   O11       1.0  0.8168257483049322  0.5169874051268595  0.25387287032697725  1.0000
  O   O12       1.0  0.6831742501202885  0.016987405253433948  0.24612712908932888  1.0000
  O   O13       1.0  0.36332288104212074  0.5447204928651774  0.6292181243342803  1.0000
  O   O14       1.0  0.13667711753417197  0.04472049299175198  0.8707818753991147  1.0000
  O   O15       1.0  0.6366771174586361  0.4552795072692185  0.3707818752405702  1.0000
  O   O16       1.0  0.863322880936673  0.9552795071426441  0.12921812502389415  1.0000
