data_image0
_chemical_formula_structural       H18C14N4O8ClBr
_chemical_formula_sum              "H18 C14 N4 O8 Cl1 Br1"
_cell_length_a       8.14869100503628
_cell_length_b       8.246227345868862
_cell_length_c       8.835621788861125
_cell_angle_alpha    100.2209155993429
_cell_angle_beta     107.08638603514794
_cell_angle_gamma    118.86240626323179

_space_group_name_H-M_alt    "P 1"
_space_group_IT_number       1

loop_
  _space_group_symop_operation_xyz
  'x, y, z'

loop_
  _atom_site_type_symbol
  _atom_site_label
  _atom_site_symmetry_multiplicity
  _atom_site_fract_x
  _atom_site_fract_y
  _atom_site_fract_z
  _atom_site_occupancy
  H   H1        1.0  0.7649413324824778  0.033077962815481046  0.7758687917626689  1.0000
  H   H2        1.0  0.28805118464857077  0.2315032761988898  0.8675561991179916  1.0000
  H   H3        1.0  0.23177033610013972  0.03563764508062626  0.943124020906808  1.0000
  H   H4        1.0  0.15687883064276875  0.8121676062620002  0.658479211041251  1.0000
  H   H5        1.0  0.08015825508845464  0.6497634815340444  0.9299212206075397  1.0000
  H   H6        1.0  0.6885724391456098  0.8713455328533843  0.043420567048322735  1.0000
  H   H7        1.0  0.607662599226563  0.6382916510118799  0.7623420841284573  1.0000
  H   H8        1.0  0.5579892948254803  0.44899206286369187  0.8448458766188879  1.0000
  H   H9        1.0  0.47285426998914964  0.9348321618960117  0.17664280841998822  1.0000
  H   H10       1.0  0.983085320167428  0.3754039532068287  0.6387725777699962  1.0000
  H   H11       1.0  0.7819438914592959  0.005388745493542024  0.43772338263383825  1.0000
  H   H12       1.0  0.7932898457579612  0.535843056355055  0.5262669692402245  1.0000
  H   H13       1.0  0.4606469238720424  0.24346546051794532  0.2125891185917747  1.0000
  H   H14       1.0  0.374250933251898  0.7564708045047195  0.5216919514929985  1.0000
  H   H15       1.0  0.8573685655080968  0.30159277060593215  0.06899784088959351  1.0000
  H   H16       1.0  0.04703252290825637  0.6693256270154675  0.26836925158673064  1.0000
  H   H17       1.0  0.06796809582574645  0.15726754791767641  0.17606702470563557  1.0000
  H   H18       1.0  0.41282477975359966  0.4647905596273087  0.4798623172336008  1.0000
  C   C1        1.0  0.9681711542116063  0.98304731434987  0.7485137927113978  1.0000
  C   C2        1.0  0.19819129319512932  0.06829819401135369  0.8263879994962005  1.0000
  C   C3        1.0  0.2609939045152095  0.9761726619299004  0.7119548168080783  1.0000
  C   C4        1.0  0.48795039734060286  0.04271665599742616  0.7956172878656004  1.0000
  C   C5        1.0  0.3573391747890317  0.6398519416710294  0.9109292426333633  1.0000
  C   C6        1.0  0.5855771361760634  0.7073179060672048  0.9961070471489294  1.0000
  C   C7        1.0  0.646123771506048  0.6116013117087149  0.8816268371418174  1.0000
  C   C8        1.0  0.8765259243364186  0.6990547508800412  0.9572609739736898  1.0000
  C   C9        1.0  0.7403007344544912  0.10958250960542157  0.4202831698346576  1.0000
  C   C10       1.0  0.7416363655336506  0.38349134012289154  0.46048733819170945  1.0000
  C   C11       1.0  0.5759821882028385  0.2388636879478998  0.3071392813761305  1.0000
  C   C12       1.0  0.0991205102976019  0.5720364318334741  0.2829604259630237  1.0000
  C   C13       1.0  0.11638848195933119  0.30865913511047754  0.24080216204125204  1.0000
  C   C14       1.0  0.2858789977958978  0.45948322651424517  0.3896630344392307  1.0000
  N   N1        1.0  0.5780724039944394  0.07037678246789417  0.2854020068711947  1.0000
  N   N2        1.0  0.8408663725123668  0.2988814235506788  0.527890493122323  1.0000
  N   N3        1.0  0.27197111787025147  0.62134421703758  0.41273427930568135  1.0000
  N   N4        1.0  0.00331358304514368  0.38307307074758606  0.17725842864874153  1.0000
  O   O1        1.0  0.5372011179099463  0.944714523005402  0.7102795547092973  1.0000
  O   O2        1.0  0.608117850022468  0.18350386365280663  0.9394059034877634  1.0000
  O   O3        1.0  0.8336367548560042  0.8193134272283346  0.6281829097040806  1.0000
  O   O4        1.0  0.9260206371925622  0.10086031023304191  0.8258920893979587  1.0000
  O   O5        1.0  0.3088767361137186  0.7401050974129102  0.9948150227243292  1.0000
  O   O6        1.0  0.23653898376672522  0.49685685060249923  0.7687572352009966  1.0000
  O   O7        1.0  0.011061141146589357  0.864409292032476  0.07557914870948945  1.0000
  O   O8        1.0  0.9190668511128817  0.5811824224435391  0.8803780175446438  1.0000
  Cl  Cl1       1.0  0.6227576673206865  0.6495616089369322  0.18701013759194424  1.0000
  Br  Br1       1.0  0.22359932997671875  0.046800139933751095  0.5066701486018439  1.0000
