data_image0
_chemical_formula_structural       H12C18N8O4Cl4Br4
_chemical_formula_sum              "H12 C18 N8 O4 Cl4 Br4"
_cell_length_a       6.939980460361844
_cell_length_b       8.520543159414622
_cell_length_c       11.201205447668615
_cell_angle_alpha    101.0607221207492
_cell_angle_beta     98.45343302030943
_cell_angle_gamma    94.74592309105131

_space_group_name_H-M_alt    "P 1"
_space_group_IT_number       1

loop_
  _space_group_symop_operation_xyz
  'x, y, z'

loop_
  _atom_site_type_symbol
  _atom_site_label
  _atom_site_symmetry_multiplicity
  _atom_site_fract_x
  _atom_site_fract_y
  _atom_site_fract_z
  _atom_site_occupancy
  H   H1        1.0  0.8161702747641709  0.297413989918791  0.43513250777253176  1.0000
  H   H2        1.0  0.18382972564208236  0.7025860094889651  0.5648674918795392  1.0000
  H   H3        1.0  0.9261238570104832  0.2365614089603891  0.306884982549145  1.0000
  H   H4        1.0  0.07387614339576999  0.763438590447367  0.6931150171029261  1.0000
  H   H5        1.0  0.2095109563504853  0.051049557283334435  0.4634377772444804  1.0000
  H   H6        1.0  0.790489044297778  0.9489504423659179  0.5365622233301118  1.0000
  H   H7        1.0  0.08498032271613153  0.891582297275777  0.3489790393217639  1.0000
  H   H8        1.0  0.9150196776901218  0.10841770213197897  0.6510209603303072  1.0000
  H   H9        1.0  0.4934937923284925  0.8117126999325137  0.04451077351108779  1.0000
  H   H10       1.0  0.5065062083197708  0.18828729971673866  0.9554892270635044  1.0000
  H   H11       1.0  0.5045092603729767  0.22861828897192776  0.4877934835923269  1.0000
  H   H12       1.0  0.495490740403718  0.7713817118565713  0.5122065169882439  1.0000
  C   C1        1.0  0.6622491118977842  0.10610763009365703  0.3011942959960399  1.0000
  C   C2        1.0  0.33775088743837295  0.8938923707405189  0.6988057045836602  1.0000
  C   C3        1.0  0.6561975510114731  0.006735612231604839  0.18330189269527894  1.0000
  C   C4        1.0  0.3438024496367901  0.9932643874176474  0.8166981078793133  1.0000
  C   C5        1.0  0.49883494435786857  0.8899695090674691  0.1343886682917592  1.0000
  C   C6        1.0  0.5011650547362788  0.11003049152521059  0.8656113313654198  1.0000
  C   C7        1.0  0.34791497367378793  0.8732531144789936  0.20144331280617053  1.0000
  C   C8        1.0  0.652085025291928  0.1267468849344393  0.79855668684503  1.0000
  C   C9        1.0  0.3540995146753862  0.978984099499656  0.31667475655964383  1.0000
  C   C10       1.0  0.6459004846607713  0.021015901334519912  0.6833252440200563  1.0000
  C   C11       1.0  0.6508247672795915  0.4418747231974525  0.6202472337935258  1.0000
  C   C12       1.0  0.3491752316861245  0.5581252762159803  0.3797527658576748  1.0000
  C   C13       1.0  0.5912697362283135  0.5312458570298533  0.7360080765258955  1.0000
  C   C14       1.0  0.4087302645483812  0.46875414379864594  0.2639919240546752  1.0000
  C   C15       1.0  0.4145630608088726  0.4609820050381803  0.7468731896666505  1.0000
  C   C16       1.0  0.585436939725812  0.5390179955488225  0.25312680999139914  1.0000
  C   C17       1.0  0.3532506966387767  0.3210424632145254  0.6392732507559369  1.0000
  C   C18       1.0  0.6467493024553705  0.6789575373781543  0.3607267489012421  1.0000
  N   N1        1.0  0.5108179714778329  0.09015708522135062  0.3630298293956814  1.0000
  N   N2        1.0  0.48918202929886173  0.9098429156071484  0.6369701711848893  1.0000
  N   N3        1.0  0.8166006389358659  0.2170266057419754  0.354726974098597  1.0000
  N   N4        1.0  0.1833993604002915  0.7829733950922003  0.6452730264811031  1.0000
  N   N5        1.0  0.20713957153099263  0.970842140443435  0.38281363056571616  1.0000
  N   N6        1.0  0.7928604278051649  0.02915786039074092  0.617186370013984  1.0000
  N   N7        1.0  0.5005176236004338  0.32052744715870135  0.568064383532364  1.0000
  N   N8        1.0  0.4994823771762609  0.6794725536697976  0.4319356170482067  1.0000
  O   O1        1.0  0.8014268238810588  0.4698799340961256  0.5784835427721516  1.0000
  O   O2        1.0  0.19857317689563603  0.5301200667323734  0.4215164578084191  1.0000
  O   O3        1.0  0.20477261729515747  0.22394489877301366  0.6166297076981131  1.0000
  O   O4        1.0  0.7952273831110958  0.7760551006347424  0.38337029195395794  1.0000
  Cl  Cl1       1.0  0.8449098130036535  0.03154917432027008  0.10114722750404735  1.0000
  Cl  Cl2       1.0  0.1550901874025997  0.9684508250874859  0.8988527721480236  1.0000
  Cl  Cl3       1.0  0.150650959333462  0.7271848120215009  0.14648155813916658  1.0000
  Cl  Cl4       1.0  0.8493490410727912  0.2728151873862551  0.8535184415129043  1.0000
  Br  Br1       1.0  0.7482309604201333  0.7033884502671531  0.8409084311619222  1.0000
  Br  Br2       1.0  0.25176904011455153  0.2966115503198497  0.15909156849612743  1.0000
  Br  Br3       1.0  0.2700870715114073  0.5185957767852524  0.871551952720449  1.0000
  Br  Br4       1.0  0.7299129288948459  0.48140422262250365  0.128448046931622  1.0000
