data_image0
_chemical_formula_structural       H12C18N8O4Cl8
_chemical_formula_sum              "H12 C18 N8 O4 Cl8"
_cell_length_a       7.139679240332825
_cell_length_b       7.832174766582845
_cell_length_c       11.615923291821561
_cell_angle_alpha    102.60358496121476
_cell_angle_beta     101.6511641385835
_cell_angle_gamma    96.50770345718033

_space_group_name_H-M_alt    "P 1"
_space_group_IT_number       1

loop_
  _space_group_symop_operation_xyz
  'x, y, z'

loop_
  _atom_site_type_symbol
  _atom_site_label
  _atom_site_symmetry_multiplicity
  _atom_site_fract_x
  _atom_site_fract_y
  _atom_site_fract_z
  _atom_site_occupancy
  H   H1        1.0  0.20720818746173492  0.05890345141516842  0.4573624718638719  1.0000
  H   H2        1.0  0.7927918134160559  0.9410965487768012  0.5426375288506312  1.0000
  H   H3        1.0  0.08171989791723645  0.8883634608878246  0.33375775100094773  1.0000
  H   H4        1.0  0.9182801026223673  0.11163653898040511  0.6662422488062749  1.0000
  H   H5        1.0  0.8140611609023886  0.3477552766140747  0.46956356426020984  1.0000
  H   H6        1.0  0.18593883823751858  0.6522447232616454  0.5304364355469254  1.0000
  H   H7        1.0  0.9257001781063419  0.29753561758357344  0.34894236593982697  1.0000
  H   H8        1.0  0.07429982243326164  0.7024643822846562  0.6510576338673958  1.0000
  H   H9        1.0  0.48873496625707186  0.8277578333449578  0.05744849479724323  1.0000
  H   H10       1.0  0.5112650328828353  0.1722421665307624  0.9425515050098922  1.0000
  H   H11       1.0  0.5051976104345665  0.26367367245697354  0.5048689351902935  1.0000
  H   H12       1.0  0.4948023901050372  0.7363263274112561  0.49513106461692913  1.0000
  C   C1        1.0  0.3493139585671828  0.9955239416132657  0.31841523383220294  1.0000
  C   C2        1.0  0.6506860419724209  0.004476058254964015  0.6815847659750198  1.0000
  C   C3        1.0  0.3418463163343452  0.8861148509911378  0.2023614846333603  1.0000
  C   C4        1.0  0.6581536845434455  0.1138851492008316  0.7976385160811429  1.0000
  C   C5        1.0  0.4942012491955282  0.9105542786986179  0.1467342604517964  1.0000
  C   C6        1.0  0.5057987513440754  0.08944572116961158  0.8532657393554262  1.0000
  C   C7        1.0  0.653150122837444  0.04062591450829281  0.20627422127591596  1.0000
  C   C8        1.0  0.3468498766406501  0.9593740856911671  0.7937257794384998  1.0000
  C   C9        1.0  0.656640405006093  0.14750660742581273  0.3224128808625212  1.0000
  C   C10       1.0  0.34335959587169773  0.8524933927661568  0.677587119851982  1.0000
  C   C11       1.0  0.3577240273683135  0.334403442788623  0.6505661561873683  1.0000
  C   C12       1.0  0.6422759731712901  0.6655965570796067  0.34943384361985436  1.0000
  C   C13       1.0  0.42208572248550547  0.4718324075787996  0.7688390476346382  1.0000
  C   C14       1.0  0.577914278054098  0.52816759228943  0.23116095217258437  1.0000
  C   C15       1.0  0.599162325040467  0.5599987317608383  0.773683410582827  1.0000
  C   C16       1.0  0.40083767409944  0.4400012681148818  0.22631658922430828  1.0000
  C   C17       1.0  0.6555926986319599  0.48410744904727915  0.6575021391608927  1.0000
  C   C18       1.0  0.3444073019076436  0.5158925508209505  0.3424978606463299  1.0000
  N   N1        1.0  0.5049060281653737  0.12337292926776716  0.373958609649639  1.0000
  N   N2        1.0  0.49509397097453334  0.876627070607953  0.6260413901574963  1.0000
  N   N3        1.0  0.20640845718524103  0.9734274341867513  0.37706980252098804  1.0000
  N   N4        1.0  0.7935915436925497  0.026572566005218307  0.6229301981935151  1.0000
  N   N5        1.0  0.8070628795953736  0.27828498509362737  0.3832650357544989  1.0000
  N   N6        1.0  0.19293711954453355  0.7217150147820927  0.6167349640526365  1.0000
  N   N7        1.0  0.5035225828823909  0.3524997020246131  0.58928609190231  1.0000
  N   N8        1.0  0.4964774176572128  0.6475002978436166  0.4107139079049128  1.0000
  O   O1        1.0  0.2072903004455461  0.22511059742455175  0.6138926750085612  1.0000
  O   O2        1.0  0.7927096986943609  0.7748894024511684  0.38610732479857407  1.0000
  O   O3        1.0  0.8055153036610653  0.5278937633335757  0.626716694555607  1.0000
  O   O4        1.0  0.19448469721672548  0.47210623685839387  0.3732833061588962  1.0000
  Cl  Cl1       1.0  0.14259084008865996  0.7238992352337293  0.1318825888890277  1.0000
  Cl  Cl2       1.0  0.857409159051247  0.27610076464199085  0.8681174109181076  1.0000
  Cl  Cl3       1.0  0.8474359171503226  0.07359039847828946  0.14171039663938467  1.0000
  Cl  Cl4       1.0  0.152564083389281  0.9264096013899402  0.8582896031678381  1.0000
  Cl  Cl5       1.0  0.7390684995570858  0.7246686713317338  0.8866185154504771  1.0000
  Cl  Cl6       1.0  0.26093149958282125  0.2753313285439862  0.11338148435665825  1.0000
  Cl  Cl7       1.0  0.2893934499315244  0.5012662413675217  0.8734475310046563  1.0000
  Cl  Cl8       1.0  0.7106065492083826  0.49873375850819834  0.1265524688024789  1.0000
