data_image0
_chemical_formula_structural       H64C72O8P4
_chemical_formula_sum              "H64 C72 O8 P4"
_cell_length_a       11.003627113710476
_cell_length_b       9.105678045477992
_cell_length_c       15.516932076115129
_cell_angle_alpha    90.0
_cell_angle_beta     108.91093908784524
_cell_angle_gamma    90.0

_space_group_name_H-M_alt    "P 1"
_space_group_IT_number       1

loop_
  _space_group_symop_operation_xyz
  'x, y, z'

loop_
  _atom_site_type_symbol
  _atom_site_label
  _atom_site_symmetry_multiplicity
  _atom_site_fract_x
  _atom_site_fract_y
  _atom_site_fract_z
  _atom_site_occupancy
  H   H1        1.0  0.3361950008183148  0.1593696727198334  0.10353295404899418  1.0000
  H   H2        1.0  0.33619500041095673  0.3406303269793657  0.6035329535323746  1.0000
  H   H3        1.0  0.6638049990555764  0.8406303266785647  0.8964670459037812  1.0000
  H   H4        1.0  0.6638049994629346  0.6593696724190325  0.3964670464204009  1.0000
  H   H5        1.0  0.45339520421989554  0.15342842598018328  0.958443616125009  1.0000
  H   H6        1.0  0.4533952043042464  0.34657157481723166  0.45844361596045724  1.0000
  H   H7        1.0  0.5466047956539959  0.8465715745164307  0.04155638382776662  1.0000
  H   H8        1.0  0.5466047955696449  0.6534284256793823  0.5415563839923182  1.0000
  H   H9        1.0  0.6086394973498261  0.0792012946645032  0.9751184028655306  1.0000
  H   H10       1.0  0.6086394974341771  0.42079870613291176  0.47511840270097905  1.0000
  H   H11       1.0  0.391360502524065  0.9207987058321109  0.024881597087244814  1.0000
  H   H12       1.0  0.39136050334442535  0.5792012943637023  0.5248815972430334  1.0000
  H   H13       1.0  0.840569601239171  0.14305893460036329  0.09820518923689146  1.0000
  H   H14       1.0  0.840569600831813  0.3569410650988358  0.5982051887202717  1.0000
  H   H15       1.0  0.15943039863472028  0.8569410647980349  0.9017948107158841  1.0000
  H   H16       1.0  0.1594303990420783  0.6430589342995624  0.40179481123250366  1.0000
  H   H17       1.0  0.039892479519996964  0.01995327301191248  0.19212915782061005  1.0000
  H   H18       1.0  0.03989247943564607  0.4800467266872866  0.6921291579851616  1.0000
  H   H19       1.0  0.9601075203538944  0.9800467263864857  0.8078708421321654  1.0000
  H   H20       1.0  0.9601075204382453  0.5199532738093274  0.30787084196761383  1.0000
  H   H21       1.0  0.040026365546429056  0.8681834708537638  0.325082543252389  1.0000
  H   H22       1.0  0.040026365462078224  0.6318165293420493  0.8250825434169407  1.0000
  H   H23       1.0  0.9599736343274623  0.13181652964285018  0.6749174567003865  1.0000
  H   H24       1.0  0.9599736344118132  0.3681834700563489  0.17491745653583482  1.0000
  H   H25       1.0  0.8373206625465883  0.8335003052045196  0.36194049993075783  1.0000
  H   H26       1.0  0.8373206624622375  0.6664996949912935  0.8619405000953094  1.0000
  H   H27       1.0  0.162679337327303  0.1664996941938786  0.6380595000220176  1.0000
  H   H28       1.0  0.16267933741165386  0.3335003055053205  0.13805949985746604  1.0000
  H   H29       1.0  0.6374363572082605  0.9607217646295314  0.2693607202737756  1.0000
  H   H30       1.0  0.6374363571239098  0.5392782355662816  0.7693607204383273  1.0000
  H   H31       1.0  0.3625636426656307  0.039278234768866715  0.7306392796789999  1.0000
  H   H32       1.0  0.36256364274998154  0.46072176493033234  0.23063927951444826  1.0000
  H   H33       1.0  0.6888278798339849  0.3109633621854419  0.9876626872636458  1.0000
  H   H34       1.0  0.6888278790136245  0.18903663751375716  0.4876626871078571  1.0000
  H   H35       1.0  0.3111721209446176  0.6890366372129562  0.012337312680366752  1.0000
  H   H36       1.0  0.3111721208602668  0.8109633629828569  0.5123373128449183  1.0000
  H   H37       1.0  0.764310719004144  0.5670709906731547  0.988922379238244  1.0000
  H   H38       1.0  0.7643107181837839  0.9329290095226583  0.4889223790824555  1.0000
  H   H39       1.0  0.2356892808697472  0.43292900982345933  0.01107762071453138  1.0000
  H   H40       1.0  0.2356892816901074  0.0670709909739556  0.5110776208703199  1.0000
  H   H41       1.0  0.7500681008735217  0.7409344462107916  0.10781674104224416  1.0000
  H   H42       1.0  0.7500681007891707  0.7590655539850214  0.6078167412067957  1.0000
  H   H43       1.0  0.24993189900036958  0.2590655542858224  0.8921832589105313  1.0000
  H   H44       1.0  0.24993189908472044  0.24093444541337666  0.39218325874597976  1.0000
  H   H45       1.0  0.6402587420199408  0.6644506669115817  0.2192475057686493  1.0000
  H   H46       1.0  0.6402587425172938  0.8355493321860156  0.7192475052432666  1.0000
  H   H47       1.0  0.3597412578539505  0.33554933248681645  0.7807524941841262  1.0000
  H   H48       1.0  0.3597412582613086  0.16445066721238263  0.28075249470074576  1.0000
  H   H49       1.0  0.5605195277362109  0.4093249048983201  0.21640594616434572  1.0000
  H   H50       1.0  0.5605195276518601  0.0906750958990949  0.7164059463288973  1.0000
  H   H51       1.0  0.43948047213768027  0.5906750955982939  0.7835940537884297  1.0000
  H   H52       1.0  0.4394804722220311  0.9093249045975191  0.28359405362387813  1.0000
  H   H53       1.0  0.32185939032048166  0.9205973029282479  0.14424242100775786  1.0000
  H   H54       1.0  0.32185939114084183  0.5794026961693494  0.6442424211635464  1.0000
  H   H55       1.0  0.6781406095534097  0.07940269647015025  0.8557575789450177  1.0000
  H   H56       1.0  0.6781406087330495  0.4205973032290488  0.35575757878922903  1.0000
  H   H57       1.0  0.1831092362676096  0.6993624920839939  0.1303999127055885  1.0000
  H   H58       1.0  0.18310923618325883  0.8006375081118192  0.6303999128701402  1.0000
  H   H59       1.0  0.8168907636062815  0.3006375084126201  0.869600087247187  1.0000
  H   H60       1.0  0.8168907636906325  0.199362491286579  0.36960008708263536  1.0000
  H   H61       1.0  0.9537422819803743  0.7078283470829287  0.035757434706650174  1.0000
  H   H62       1.0  0.9537422818960235  0.7921716531128844  0.5357574348712018  1.0000
  H   H63       1.0  0.046257717893516945  0.29217165341368534  0.9642425652461253  1.0000
  H   H64       1.0  0.04625771797786781  0.20782834738372957  0.4642425650815737  1.0000
  C   C1        1.0  0.5264193338612343  0.07768486173869188  0.0007532254042275203  1.0000
  C   C2        1.0  0.5264193337768834  0.42231513796050724  0.5007532255687791  1.0000
  C   C3        1.0  0.47358066601265697  0.9223151376597063  0.9992467745485479  1.0000
  C   C4        1.0  0.47358066609700783  0.5776848625361067  0.49924677438399634  1.0000
  C   C5        1.0  0.7259935937309219  0.06011207592298163  0.17837580004623313  1.0000
  C   C6        1.0  0.725993593646571  0.4398879237762175  0.6783758002107847  1.0000
  C   C7        1.0  0.2740064061429695  0.9398879234754166  0.8216241999065423  1.0000
  C   C8        1.0  0.27400640622732036  0.5601120756221807  0.3216241997419908  1.0000
  C   C9        1.0  0.8393978252098234  0.07642526086737665  0.15634617464359615  1.0000
  C   C10       1.0  0.8393978248024654  0.42357473883182245  0.6563461741269765  1.0000
  C   C11       1.0  0.1606021746640679  0.9235747396292374  0.8436538253091793  1.0000
  C   C12       1.0  0.160602175071426  0.5764252605665757  0.3436538258257989  1.0000
  C   C13       1.0  0.9519385777465411  0.007300787450201384  0.20920871974321062  1.0000
  C   C14       1.0  0.9519385773391831  0.49269921224899765  0.709208719226591  1.0000
  C   C15       1.0  0.048061422450357376  0.9926992119481967  0.790791280890736  1.0000
  C   C16       1.0  0.04806142253470828  0.5073007871494005  0.2907912807261845  1.0000
  C   C17       1.0  0.9516922552572313  0.9212795398763338  0.28368930329698655  1.0000
  C   C18       1.0  0.9516922560775916  0.5787204603194792  0.7836893034527752  1.0000
  C   C19       1.0  0.048307744616659896  0.07872046062028017  0.7163106966557887  1.0000
  C   C20       1.0  0.048307744701010805  0.42127954017713476  0.21631069649123727  1.0000
  C   C21       1.0  0.8387646294520542  0.9028030036799383  0.3050271151043839  1.0000
  C   C22       1.0  0.8387646293677032  0.597196996515875  0.8050271152689354  1.0000
  C   C23       1.0  0.1612353713265482  0.09719699681667589  0.6949728848396285  1.0000
  C   C24       1.0  0.161235370506188  0.4028030028825232  0.19497288468384003  1.0000
  C   C25       1.0  0.7258862776668488  0.9724770352931101  0.2526747782282854  1.0000
  C   C26       1.0  0.7258862772594906  0.527522964902703  0.7526747777116658  1.0000
  C   C27       1.0  0.27411372253004984  0.027522964105288025  0.7473252224056613  1.0000
  C   C28       1.0  0.2741137226144007  0.4724770355939111  0.24732522224110973  1.0000
  C   C29       1.0  0.6231189127996816  0.34212794746758096  0.10424257888558673  1.0000
  C   C30       1.0  0.6231189127153308  0.15787205223161813  0.6042425790501383  1.0000
  C   C31       1.0  0.3768810879789208  0.6578720530290331  0.8957574210584257  1.0000
  C   C32       1.0  0.37688108715856056  0.8421279471667801  0.39575742090263716  1.0000
  C   C33       1.0  0.6786700514887953  0.38722281881589526  0.03896155258745494  1.0000
  C   C34       1.0  0.6786700514044445  0.11277718088330382  0.5389615527520065  1.0000
  C   C35       1.0  0.321329948385096  0.6127771805825029  0.9610384473653206  1.0000
  C   C36       1.0  0.3213299484694468  0.8872228185150944  0.461038447200769  1.0000
  C   C37       1.0  0.7222302516908616  0.531115858242068  0.03988305215743496  1.0000
  C   C38       1.0  0.7222302512835036  0.9688841408555292  0.5398830516408154  1.0000
  C   C39       1.0  0.27776974850603686  0.4688841411563302  0.9601169484765117  1.0000
  C   C40       1.0  0.2777697485903877  0.03111585854286888  0.46011694831196015  1.0000
  C   C41       1.0  0.7116399713965299  0.6301434029780477  0.1059240567035081  1.0000
  C   C42       1.0  0.7116399709891719  0.8698565972177654  0.6059240561868885  1.0000
  C   C43       1.0  0.2883600288003687  0.36985659751856637  0.8940759439304387  1.0000
  C   C44       1.0  0.2883600288847195  0.13014340327884857  0.394075943765887  1.0000
  C   C45       1.0  0.6520218189351694  0.5872139837686646  0.16885579200629566  1.0000
  C   C46       1.0  0.6520218188508187  0.9127860164271485  0.6688557921708472  1.0000
  C   C47       1.0  0.34797818093872185  0.41278601562973355  0.8311442079464799  1.0000
  C   C48       1.0  0.34797818102307265  0.08721398406946557  0.3311442077819282  1.0000
  C   C49       1.0  0.6074082079945343  0.44361929774203357  0.1677367868306945  1.0000
  C   C50       1.0  0.6074082088148945  0.056380701957165505  0.6677367869864831  1.0000
  C   C51       1.0  0.39259179187935705  0.5563807016563646  0.8322632131220811  1.0000
  C   C52       1.0  0.39259179105899683  0.9436192985394485  0.33226321296629246  1.0000
  C   C53       1.0  0.17182638163044422  0.054279149507756946  0.05770731798513967  1.0000
  C   C54       1.0  0.1718263821277972  0.44572085019144214  0.5577073174597569  1.0000
  C   C55       1.0  0.8281736182434469  0.9457208498906412  0.9422926819676358  1.0000
  C   C56       1.0  0.8281736186508052  0.5542791503051718  0.4422926824842554  1.0000
  C   C57       1.0  0.22135978528688766  0.9242532733934602  0.10209806868178505  1.0000
  C   C58       1.0  0.22135978610724788  0.5757467268023528  0.6020980688375736  1.0000
  C   C59       1.0  0.7786402145870036  0.07574672710315376  0.8979019312709904  1.0000
  C   C60       1.0  0.7786402146713545  0.42425327259604534  0.39790193110643884  1.0000
  C   C61       1.0  0.14233371008530127  0.7995972934289924  0.09377711944649722  1.0000
  C   C62       1.0  0.14233371090566155  0.7004027067668207  0.5937771196022859  1.0000
  C   C63       1.0  0.85766628978859  0.20040270706762167  0.9062228805062783  1.0000
  C   C64       1.0  0.8576662898729408  0.29959729372979327  0.4062228803417267  1.0000
  C   C65       1.0  0.014418678554361696  0.8039496952822165  0.04114567973329401  1.0000
  C   C66       1.0  0.014418678147003618  0.6960503049135967  0.5411456792166744  1.0000
  C   C67       1.0  0.9855813213195296  0.19605030411618177  0.9588543202194816  1.0000
  C   C68       1.0  0.9855813217268877  0.3039496955830173  0.4588543207361011  1.0000
  C   C69       1.0  0.039115046843389505  0.06427811493847689  0.004096584902461601  1.0000
  C   C70       1.0  0.03911504675903863  0.43572188585893806  0.5040965850670132  1.0000
  C   C71       1.0  0.9608849530305018  0.9357218855581371  0.9959034150503139  1.0000
  C   C72       1.0  0.9608849531148526  0.564278114637676  0.49590341488576223  1.0000
  O   O1        1.0  0.4799850978892119  0.13908493180570372  0.16301344583686897  1.0000
  O   O2        1.0  0.47998509780486104  0.36091506789349537  0.6630134460014205  1.0000
  O   O3        1.0  0.5200149019846794  0.8609150675926945  0.8369865541159065  1.0000
  O   O4        1.0  0.5200149020690302  0.6390849326031186  0.3369865539513549  1.0000
  O   O5        1.0  0.24437824053646057  0.1758793866861269  0.06220364630711955  1.0000
  O   O6        1.0  0.2443782410338136  0.3241206130130722  0.562203645781737  1.0000
  O   O7        1.0  0.755621759660438  0.8241206127122712  0.9377963543268271  1.0000
  O   O8        1.0  0.7556217597447887  0.6758793874835418  0.4377963541622755  1.0000
  P   P1        1.0  0.5797064788082676  0.1540036319092575  0.11518407049806953  1.0000
  P   P2        1.0  0.5797064787239169  0.3459963677899416  0.6151840706626212  1.0000
  P   P3        1.0  0.42029352106562357  0.8459963674891406  0.8848159294547059  1.0000
  P   P4        1.0  0.42029352147298166  0.6540036327066725  0.3848159299713256  1.0000
