data_image0
_chemical_formula_structural       H24C24N4F8I4
_chemical_formula_sum              "H24 C24 N4 F8 I4"
_cell_length_a       6.765906900494642
_cell_length_b       10.825679609439696
_cell_length_c       11.357302987961926
_cell_angle_alpha    107.20267524428245
_cell_angle_beta     92.67075546540521
_cell_angle_gamma    105.29709489042537

_space_group_name_H-M_alt    "P 1"
_space_group_IT_number       1

loop_
  _space_group_symop_operation_xyz
  'x, y, z'

loop_
  _atom_site_type_symbol
  _atom_site_label
  _atom_site_symmetry_multiplicity
  _atom_site_fract_x
  _atom_site_fract_y
  _atom_site_fract_z
  _atom_site_occupancy
  H   H1        1.0  0.5186887818214939  0.22071910051861185  0.14257629212456083  1.0000
  H   H2        1.0  0.48131121753336176  0.7792808989271041  0.8574237079449963  1.0000
  H   H3        1.0  0.3801406828027923  0.30419018392295943  0.0718646263950035  1.0000
  H   H4        1.0  0.6198593180316888  0.6958098155268646  0.9281353736734073  1.0000
  H   H5        1.0  0.07099806646525855  0.13054367058406152  0.04837970479085831  1.0000
  H   H6        1.0  0.9290019328895971  0.8694563288616544  0.951620295278699  1.0000
  H   H7        1.0  0.21391365549584046  0.042444951082588486  0.11028976703225388  1.0000
  H   H8        1.0  0.7860863442562515  0.957555049320686  0.8897102330370461  1.0000
  H   H9        1.0  0.4314879783968518  0.3787405161266059  0.45592748184327414  1.0000
  H   H10       1.0  0.5685120209580037  0.62125948331911  0.544072518226283  1.0000
  H   H11       1.0  0.5590060232815254  0.26863686213527094  0.36261672656474875  1.0000
  H   H12       1.0  0.4409939764705665  0.7313631382680035  0.637383273504551  1.0000
  H   H13       1.0  0.26173604733230266  0.08343052792847964  0.32989926200238956  1.0000
  H   H14       1.0  0.7382639536883155  0.9165694721555027  0.6701007371354921  1.0000
  H   H15       1.0  0.14070031840825722  0.1922725922464369  0.43005790492706825  1.0000
  H   H16       1.0  0.8592996813438347  0.8077274081568376  0.5699420951422317  1.0000
  H   H17       1.0  0.21256004060044534  0.4563748047664593  0.19938127585957469  1.0000
  H   H18       1.0  0.787439960631272  0.5436251956409234  0.8006187242085788  1.0000
  H   H19       1.0  0.24164175077779732  0.4908857364072749  0.36326248739570965  1.0000
  H   H20       1.0  0.7583582489742947  0.5091142639959997  0.6367375126735904  1.0000
  H   H21       1.0  0.9453023994779869  0.3098604146600869  0.34356181581231265  1.0000
  H   H22       1.0  0.054697599876868834  0.690139584785629  0.6564381842572445  1.0000
  H   H23       1.0  0.9106496901327119  0.2786146633884711  0.18056679746265222  1.0000
  H   H24       1.0  0.08935030961938008  0.7213853370148033  0.8194332026066476  1.0000
  C   C1        1.0  0.3812208203930614  0.2563975020380676  0.14459060541635796  1.0000
  C   C2        1.0  0.6187791793590305  0.7436024983652069  0.8554093946529419  1.0000
  C   C3        1.0  0.1800859316617775  0.13934866112857355  0.1269679609545635  1.0000
  C   C4        1.0  0.8199140680903143  0.8606513392747008  0.8730320391147364  1.0000
  C   C5        1.0  0.417487986789335  0.3002097515336207  0.3661304013249737  1.0000
  C   C6        1.0  0.5825120129627569  0.6997902488696538  0.6338695987443262  1.0000
  C   C7        1.0  0.22196613286567213  0.17866391114948615  0.34788340306762083  1.0000
  C   C8        1.0  0.7780338668864198  0.8213360892537883  0.652116597001679  1.0000
  C   C9        1.0  0.21957069305579222  0.4111072606707546  0.2735326437503882  1.0000
  C   C10       1.0  0.7804293066962997  0.58889273973252  0.7264673563189117  1.0000
  C   C11       1.0  0.022226209700678245  0.29257612921224785  0.25995028262164865  1.0000
  C   C12       1.0  0.9777737900514136  0.7074238711910267  0.7400497174476512  1.0000
  C   C13       1.0  0.26705806122223186  0.7993689911218896  0.1431516577745588  1.0000
  C   C14       1.0  0.7329419381326239  0.20063100832382633  0.8568483422949984  1.0000
  C   C15       1.0  0.42696077614711125  0.8531052510311005  0.24206391428155527  1.0000
  C   C16       1.0  0.573039225084606  0.14689474937628216  0.757936085786598  1.0000
  C   C17       1.0  0.38454054404565935  0.8220134741981671  0.3505268511996106  1.0000
  C   C18       1.0  0.6154594553091962  0.1779865252475488  0.6494731488699467  1.0000
  C   C19       1.0  0.19037055636411326  0.7427188494324981  0.3592848380394646  1.0000
  C   C20       1.0  0.8096294433879786  0.2572811509707765  0.6407151620298354  1.0000
  C   C21       1.0  0.03073412586633519  0.6884653198494045  0.26024474194653063  1.0000
  C   C22       1.0  0.9692658738857567  0.31153468055387  0.7397552581227693  1.0000
  C   C23       1.0  0.07394409052660535  0.718281479078927  0.1514449293030547  1.0000
  C   C24       1.0  0.926055908617151  0.2817185200433885  0.8485550698362309  1.0000
  N   N1        1.0  0.4024954825554319  0.36071398206152344  0.2665020538104421  1.0000
  N   N2        1.0  0.5975045167994238  0.6392860173841927  0.7334979462591151  1.0000
  N   N3        1.0  0.07805459765106783  0.16561168321640507  0.2400797457633945  1.0000
  N   N4        1.0  0.9219454035806495  0.8343883171909775  0.7599202543047588  1.0000
  F   F1        1.0  0.29688755027943553  0.8271010445159153  0.03457904896126631  1.0000
  F   F2        1.0  0.7031124494726564  0.1728989558873591  0.9654209511080335  1.0000
  F   F3        1.0  0.5340800932191736  0.8682891477899229  0.45007327456315976  1.0000
  F   F4        1.0  0.46591990801254385  0.1317108526174597  0.5499267255049937  1.0000
  F   F5        1.0  0.15964570777273393  0.715135106304342  0.4678005761637784  1.0000
  F   F6        1.0  0.8403542915821217  0.2848648931413739  0.5321994239057788  1.0000
  F   F7        1.0  0.9268683909339838  0.667222812081027  0.049680697099262865  1.0000
  F   F8        1.0  0.07313160860700887  0.3327771879988472  0.9503193020397654  1.0000
  I   I1        1.0  0.7212275822880138  0.983965226402749  0.23324826328795067  1.0000
  I   I2        1.0  0.2787724170668419  0.016034773042966816  0.7667517367816066  1.0000
  I   I3        1.0  0.7425486364822806  0.5516157293925864  0.2701282113937344  1.0000
  I   I4        1.0  0.2574513643522005  0.4483842700572377  0.7298717886746763  1.0000
