data_image0
_chemical_formula_structural       H8C16N2F4I2
_chemical_formula_sum              "H8 C16 N2 F4 I2"
_cell_length_a       5.426115091935258
_cell_length_b       5.986062175056723
_cell_length_c       12.546986066279718
_cell_angle_alpha    75.95437393405159
_cell_angle_beta     79.87885651398274
_cell_angle_gamma    84.84533849853973

_space_group_name_H-M_alt    "P 1"
_space_group_IT_number       1

loop_
  _space_group_symop_operation_xyz
  'x, y, z'

loop_
  _atom_site_type_symbol
  _atom_site_label
  _atom_site_symmetry_multiplicity
  _atom_site_fract_x
  _atom_site_fract_y
  _atom_site_fract_z
  _atom_site_occupancy
  H   H1        1.0  0.14922448694760665  0.7401003284606852  0.7477112665291739  1.0000
  H   H2        1.0  0.8507755128761897  0.259899671035113  0.2522887340696064  1.0000
  H   H3        1.0  0.5033919120094923  0.992040530862981  0.7280528034142275  1.0000
  H   H4        1.0  0.49660808810774776  0.007959469018667805  0.271947196352388  1.0000
  H   H5        1.0  0.8811426237433686  0.9597748492641844  0.5844214260978291  1.0000
  H   H6        1.0  0.11885737608042772  0.040225150231614104  0.41557857450095104  1.0000
  H   H7        1.0  0.8734610464046287  0.6892770579889773  0.45881665407494493  1.0000
  H   H8        1.0  0.12653895341916765  0.31072294150682106  0.5411833465238354  1.0000
  C   C1        1.0  0.5061679499912844  0.5780767894808448  0.5371950764579503  1.0000
  C   C2        1.0  0.49383204983251183  0.42192321001495353  0.46280492414083  1.0000
  C   C3        1.0  0.3124334603128735  0.7356548016270139  0.6834145783479999  1.0000
  C   C4        1.0  0.6875665398043665  0.26434519825463487  0.31658542141861545  1.0000
  C   C5        1.0  0.5115508305414448  0.8752272231304374  0.6730609274777112  1.0000
  C   C6        1.0  0.4884491695757954  0.12477277675121141  0.32693907228890434  1.0000
  C   C7        1.0  0.7194102221328962  0.8581637867948837  0.5923643841816689  1.0000
  C   C8        1.0  0.2805897776909002  0.1418362127009147  0.4076356164171115  1.0000
  C   C9        1.0  0.7163194347154166  0.7088106977855256  0.523324013413776  1.0000
  C   C10       1.0  0.2836805654018236  0.2911893020961233  0.47667598635283936  1.0000
  C   C11       1.0  0.45905419090243066  0.23030338461890598  0.9505385742390332  1.0000
  C   C12       1.0  0.5409458092148094  0.7696966152627428  0.04946142552758226  1.0000
  C   C13       1.0  0.6748298296054416  0.11296252771990052  0.909269982868359  1.0000
  C   C14       1.0  0.3251701705117984  0.8870374721617483  0.09073001689825652  1.0000
  C   C15       1.0  0.2870680745096572  0.1189983196550831  0.03927943089201468  1.0000
  C   C16       1.0  0.7129319256075828  0.8810016802265656  0.9607205688746009  1.0000
  N   N1        1.0  0.3085044935359061  0.5886741679199955  0.6185187840913177  1.0000
  N   N2        1.0  0.691495506581334  0.41132583196165323  0.38148121567529786  1.0000
  F   F1        1.0  0.41304176992009944  0.45586987487892633  0.9049901700029875  1.0000
  F   F2        1.0  0.5869582301971407  0.5441301250027224  0.09500982976362794  1.0000
  F   F3        1.0  0.07980490283683035  0.24126657258235826  0.07471574700276117  1.0000
  F   F4        1.0  0.9201950971164575  0.7587334289796979  0.92528425275733  1.0000
  I   I1        1.0  0.9323502029882151  0.2830002969402587  0.7754400979285899  1.0000
  I   I2        1.0  0.06764979712902487  0.7169997029413901  0.2245599018380255  1.0000
