data_image0
_chemical_formula_structural       H124C86N4O26Cl4
_chemical_formula_sum              "H124 C86 N4 O26 Cl4"
_cell_length_a       11.201101609412941
_cell_length_b       13.853647334822174
_cell_length_c       14.24179613853653
_cell_angle_alpha    80.12626773850913
_cell_angle_beta     76.1290472570907
_cell_angle_gamma    87.37965728138722

_space_group_name_H-M_alt    "P 1"
_space_group_IT_number       1

loop_
  _space_group_symop_operation_xyz
  'x, y, z'

loop_
  _atom_site_type_symbol
  _atom_site_label
  _atom_site_symmetry_multiplicity
  _atom_site_fract_x
  _atom_site_fract_y
  _atom_site_fract_z
  _atom_site_occupancy
  H   H1        1.0  0.8577667123245107  0.6339089243877023  0.023637835136191578  1.0000
  H   H2        1.0  0.14223328737093796  0.36609107575947447  0.9763621650941507  1.0000
  H   H3        1.0  0.09428787150321746  0.5034193878532963  0.304288992043813  1.0000
  H   H4        1.0  0.9057121284393409  0.4965806116938884  0.695711007452059  1.0000
  H   H5        1.0  0.9461792120020298  0.39733211652270073  0.3014626757843079  1.0000
  H   H6        1.0  0.05382078769341895  0.6026678836244759  0.6985373244460343  1.0000
  H   H7        1.0  0.7912215396348068  0.3045088731063228  0.2922527642014774  1.0000
  H   H8        1.0  0.20877846009232312  0.6954911263184916  0.7077472360277578  1.0000
  H   H9        1.0  0.12692234582201856  0.6868978696736638  0.12150525686818037  1.0000
  H   H10       1.0  0.8730776538734303  0.31310213047351293  0.8784947433621618  1.0000
  H   H11       1.0  0.8876283242014519  0.8345724911828344  0.02318211931507494  1.0000
  H   H12       1.0  0.11237167549399679  0.1654275089643423  0.9768178809152673  1.0000
  H   H13       1.0  0.8024218640893093  0.02563660975537393  0.32649937702133114  1.0000
  H   H14       1.0  0.19757813560613952  0.9743633903918029  0.673500623209011  1.0000
  H   H15       1.0  0.9477271920813848  0.9008891860531567  0.3391493218686668  1.0000
  H   H16       1.0  0.05227280853919071  0.09911081336413276  0.6608506783595768  1.0000
  H   H17       1.0  0.06872593144043472  0.6777681885305016  0.27175699497087497  1.0000
  H   H18       1.0  0.9312740682550141  0.322231811616675  0.7282430052594673  1.0000
  H   H19       1.0  0.7642079878296414  0.07028238246174148  0.09063860533808188  1.0000
  H   H20       1.0  0.235792012081236  0.9297176178078055  0.9093613941588973  1.0000
  H   H21       1.0  0.6291382351517606  0.8488220512540504  0.038037323465393784  1.0000
  H   H22       1.0  0.3708617645753692  0.15117794817076405  0.9619626767638415  1.0000
  H   H23       1.0  0.25344284144178936  0.7974238895803447  0.2680737014677394  1.0000
  H   H24       1.0  0.7465571584690879  0.2025761106892022  0.7319262980292397  1.0000
  H   H25       1.0  0.37343040694656865  0.008933827262932683  0.30250511969345195  1.0000
  H   H26       1.0  0.6265695927805612  0.9910661721618818  0.6974948805357832  1.0000
  H   H27       1.0  0.678106376092502  0.07477980964008801  0.2304069461534192  1.0000
  H   H28       1.0  0.3218936238183753  0.9252201906294588  0.76959305334356  1.0000
  H   H29       1.0  0.30218786848338425  0.7683024082445044  0.1275648696413534  1.0000
  H   H30       1.0  0.6978121312437457  0.23169759118030997  0.8724351305878819  1.0000
  H   H31       1.0  0.5986827968450897  0.6563789213589885  0.02181192983631402  1.0000
  H   H32       1.0  0.401317202850359  0.34362107878818826  0.9781880703940282  1.0000
  H   H33       1.0  0.6229013646079938  0.36205053103516416  0.23351687836727064  1.0000
  H   H34       1.0  0.3770986353028834  0.6379494692343827  0.7664831211297085  1.0000
  H   H35       1.0  0.35783407029664716  0.4826414160022814  0.33818287159237176  1.0000
  H   H36       1.0  0.6421659302922473  0.5173585841373702  0.6618171286369791  1.0000
  H   H37       1.0  0.26536522929871165  0.6315607112895365  0.3610210960136862  1.0000
  H   H38       1.0  0.7346347713218639  0.36843928812775306  0.6389789042145575  1.0000
  H   H39       1.0  0.6852127845734067  0.3976699131623683  0.08669597750573234  1.0000
  H   H40       1.0  0.3147872151220421  0.6023300869848083  0.91330402272461  1.0000
  H   H41       1.0  0.1354465291725881  0.7935179748183928  0.9612738784508684  1.0000
  H   H42       1.0  0.8645534707382893  0.20648202545115407  0.03872612104611076  1.0000
  H   H43       1.0  0.004076251063272763  0.7354514446006534  0.9482931788787842  1.0000
  H   H44       1.0  0.9959237495256215  0.2645485555389984  0.051706821350566555  1.0000
  H   H45       1.0  0.13873092044114552  0.6668752122061058  0.9530882877699781  1.0000
  H   H46       1.0  0.8612690794697319  0.33312478806344104  0.04691171172700092  1.0000
  H   H47       1.0  0.731138350911957  0.05200828823146895  0.9309407471627567  1.0000
  H   H48       1.0  0.2688616489989201  0.947991712038078  0.06905925233422257  1.0000
  H   H49       1.0  0.7826628158953913  0.9298173157714462  0.9430952654355643  1.0000
  H   H50       1.0  0.21733718383173872  0.07018268365336815  0.05690473479367084  1.0000
  H   H51       1.0  0.8867997199574883  0.025033771260793147  0.9353579110394477  1.0000
  H   H52       1.0  0.11320027973796042  0.9749662288863836  0.0646420891908946  1.0000
  H   H53       1.0  0.38808417760492353  0.7249929122199865  0.9637016088103669  1.0000
  H   H54       1.0  0.6119158229839708  0.27500708791966505  0.03629839141898397  1.0000
  H   H55       1.0  0.5281781355089591  0.7841152075963946  0.953603179237128  1.0000
  H   H56       1.0  0.4718218641864897  0.21588479255078205  0.04639682099321424  1.0000
  H   H57       1.0  0.3923508672158103  0.8535795185135493  0.9610686490982826  1.0000
  H   H58       1.0  0.6076491324796384  0.1464204816336274  0.038931351132059755  1.0000
  H   H59       1.0  0.8074992884257054  0.4693198745729056  0.9254358441617301  1.0000
  H   H60       1.0  0.19250071216318912  0.5306801255667463  0.07456415606762065  1.0000
  H   H61       1.0  0.7467577314458493  0.5870154276899371  0.9373663818411774  1.0000
  H   H62       1.0  0.2532422691747262  0.41298457172735237  0.06263361838706641  1.0000
  H   H63       1.0  0.648264173185293  0.49219562859134103  0.9329141737184687  1.0000
  H   H64       1.0  0.35173582675726556  0.5078043709558435  0.06708582577740337  1.0000
  H   H65       1.0  0.5200242897380009  0.7675741821770423  0.3016795449201663  1.0000
  H   H66       1.0  0.479975709957448  0.23242581797013437  0.6983204553101761  1.0000
  H   H67       1.0  0.6670359467320628  0.822167163012967  0.2771616816430443  1.0000
  H   H68       1.0  0.33296405296338594  0.1778328371342098  0.722838318587298  1.0000
  H   H69       1.0  0.6083384269891118  0.9045010722416037  0.4138277232739622  1.0000
  H   H70       1.0  0.3916615738468924  0.0954989272980559  0.5861722762209184  1.0000
  H   H71       1.0  0.45408095789392866  0.8676255913694682  0.42385540214982326  1.0000
  H   H72       1.0  0.5459190418332013  0.13237440805534628  0.576144598079412  1.0000
  H   H73       1.0  0.810945800372852  0.7523949093731505  0.3742903930686498  1.0000
  H   H74       1.0  0.18905419932259673  0.24760509077402615  0.6257096071616925  1.0000
  H   H75       1.0  0.784580071493094  0.6317636287516788  0.4452573530392449  1.0000
  H   H76       1.0  0.21541992841778315  0.36823637151786826  0.5547426464577343  1.0000
  H   H77       1.0  0.6774425973141383  0.6952999130434168  0.5848085441495089  1.0000
  H   H78       1.0  0.3225574023813104  0.30470008710376  0.41519145608083335  1.0000
  H   H79       1.0  0.7294152896605437  0.8144064940394217  0.5195263210464504  1.0000
  H   H80       1.0  0.27058471025033354  0.18559350623012524  0.4804736784505287  1.0000
  H   H81       1.0  0.59080786404465  0.5602599650604011  0.47468617401526997  1.0000
  H   H82       1.0  0.4091921356507986  0.43974003508677556  0.5253138262150723  1.0000
  H   H83       1.0  0.48216076918362755  0.6048019611188944  0.4029516681762778  1.0000
  H   H84       1.0  0.5178392307272497  0.39519803915065266  0.5970483313207012  1.0000
  H   H85       1.0  0.38735371270204855  0.7105141420275057  0.5104247013716274  1.0000
  H   H86       1.0  0.6126462869934002  0.2894858581196709  0.4895752988587148  1.0000
  H   H87       1.0  0.46762651005516426  0.6454410202708905  0.5956390223016048  1.0000
  H   H88       1.0  0.5323734896402845  0.35455897987628615  0.40436097792873743  1.0000
  H   H89       1.0  0.735869784473478  0.5636543291128576  0.3177941475412035  1.0000
  H   H90       1.0  0.2641302161154164  0.43634567102679417  0.6822058526881474  1.0000
  H   H91       1.0  0.776605933160764  0.6797156603787  0.2401276142069043  1.0000
  H   H92       1.0  0.2233940667501133  0.3202843398908469  0.7598723852900748  1.0000
  H   H93       1.0  0.6305106189307598  0.6263240071776929  0.2496235964661367  1.0000
  H   H94       1.0  0.3694893809801174  0.37367599309185395  0.7503764030308424  1.0000
  H   H95       1.0  0.5477002541234823  0.8982196899200288  0.5849978927944179  1.0000
  H   H96       1.0  0.45229974646541193  0.1017803102196231  0.4150021074349327  1.0000
  H   H97       1.0  0.5069135767125752  0.7838687952628661  0.665948101184482  1.0000
  H   H98       1.0  0.4930864230145547  0.2161312041619482  0.33405189904475313  1.0000
  H   H99       1.0  0.3999363502302814  0.8451238176480865  0.597981365539897  1.0000
  H   H100      1.0  0.6000636503586129  0.1548761824915652  0.40201863468945387  1.0000
  H   H101      1.0  0.0406923289119534  0.08349389181165087  0.3639007360227271  1.0000
  H   H102      1.0  0.9593076707834952  0.9165061083355258  0.6360992642076151  1.0000
  H   H103      1.0  0.11548338832053326  0.08254834856298002  0.21569875672008396  1.0000
  H   H104      1.0  0.8845166113749156  0.9174516515841968  0.7843012435102583  1.0000
  H   H105      1.0  0.9917357116196646  0.15932972047333693  0.19061316887118576  1.0000
  H   H106      1.0  0.008264288107465441  0.8406702789514775  0.8093868313580495  1.0000
  H   H107      1.0  0.18955073886877066  0.23740219404795698  0.10429480071141647  1.0000
  H   H108      1.0  0.8104492610737879  0.7625978054992276  0.8957051987844556  1.0000
  H   H109      1.0  0.10709837879770831  0.3071949192411129  0.19164943753528293  1.0000
  H   H110      1.0  0.8929016208977404  0.6928050809060637  0.8083505626950594  1.0000
  H   H111      1.0  0.3283280134848062  0.2967839079920266  0.20031711340310354  1.0000
  H   H112      1.0  0.6716719862106425  0.7032160921551501  0.7996828868272388  1.0000
  H   H113      1.0  0.3222096719360491  0.1665751025226867  0.2197776443975772  1.0000
  H   H114      1.0  0.6777903279748282  0.8334248977468602  0.7802223550994019  1.0000
  H   H115      1.0  0.23410661025561935  0.2321760325240165  0.309886454290559  1.0000
  H   H116      1.0  0.7658933894398293  0.7678239676231602  0.6901135459397832  1.0000
  H   H117      1.0  0.8230150841427216  0.29750364155615516  0.4258116509298247  1.0000
  H   H118      1.0  0.17698491555272708  0.7024963585910216  0.5741883493005175  1.0000
  H   H119      1.0  0.8923679416111736  0.20958527374766378  0.3705165501258159  1.0000
  H   H120      1.0  0.10763205829970372  0.7904147265218832  0.6294834493711631  1.0000
  H   H121      1.0  0.14658807541657912  0.9352777143632464  0.35672753646473865  1.0000
  H   H122      1.0  0.8534119242788697  0.0647222857839305  0.6432724637656035  1.0000
  H   H123      1.0  0.13179743352867515  0.9773948802438982  0.4537762970263844  1.0000
  H   H124      1.0  0.8682025661667736  0.022605119903278476  0.546223703203958  1.0000
  C   C1        1.0  0.8073069671831831  0.49586488220695707  0.11620161826223098  1.0000
  C   C2        1.0  0.1926930327276941  0.5041351180625899  0.8837983812347482  1.0000
  C   C3        1.0  0.8769563193524524  0.5816926858399283  0.08490319823860291  1.0000
  C   C4        1.0  0.12304368034299627  0.4183073143072485  0.9150968019917393  1.0000
  C   C5        1.0  0.9695361578717839  0.6044303155255454  0.12824010204716532  1.0000
  C   C6        1.0  0.03046384203909328  0.3955696847440014  0.8717598974498137  1.0000
  C   C7        1.0  0.9921702715713832  0.5358616711724984  0.2074373418114217  1.0000
  C   C8        1.0  0.007829728124065563  0.4641383289746783  0.7925626584189206  1.0000
  C   C9        1.0  0.9274558579936097  0.44825768779520136  0.23944426635776578  1.0000
  C   C10       1.0  0.07254414191726744  0.5517423124743456  0.7605557331392133  1.0000
  C   C11       1.0  0.8347136758811373  0.4284078709292314  0.19506991335159882  1.0000
  C   C12       1.0  0.16528632402973986  0.5715921293403154  0.8049300861453803  1.0000
  C   C13       1.0  0.042037996003455334  0.6996783694102083  0.0949192718573097  1.0000
  C   C14       1.0  0.9579620036919934  0.3003216307369683  0.9050807283730327  1.0000
  C   C15       1.0  0.9737964745702898  0.783752967993609  0.1416286948331582  1.0000
  C   C16       1.0  0.02620352534058725  0.21624703227593772  0.8583713046638209  1.0000
  C   C17       1.0  0.8994567507157984  0.8482326553856976  0.09346871112231828  1.0000
  C   C18       1.0  0.10054324901133141  0.15176734403911668  0.906531289106917  1.0000
  C   C19       1.0  0.8419510472223248  0.9307051975727595  0.12891095135158648  1.0000
  C   C20       1.0  0.15804895247312392  0.06929480257441713  0.8710890488787558  1.0000
  C   C21       1.0  0.8626679399487477  0.9499265719472865  0.21799428149123604  1.0000
  C   C22       1.0  0.137332060671828  0.05007342747000294  0.7820057187370076  1.0000
  C   C23       1.0  0.9330468318902531  0.8861043934982695  0.26991504591116183  1.0000
  C   C24       1.0  0.06695316780519557  0.11389560664890729  0.7300849543191804  1.0000
  C   C25       1.0  0.986439999213049  0.8024192990625728  0.23343375989150117  1.0000
  C   C26       1.0  0.013560000482399788  0.19758070108460385  0.7665662403388411  1.0000
  C   C27       1.0  0.7562832398668765  0.9953533413536683  0.07677588422111647  1.0000
  C   C28       1.0  0.2437167607220179  0.004646658785983593  0.9232241160082343  1.0000
  C   C29       1.0  0.6238256659803315  0.9624924885027072  0.12345688019657076  1.0000
  C   C30       1.0  0.3761743339305457  0.03750751176683977  0.8765431193004083  1.0000
  C   C31       1.0  0.5729017663251464  0.8845093871305136  0.09621918220781335  1.0000
  C   C32       1.0  0.4270982333703023  0.11549061301666301  0.903780818022529  1.0000
  C   C33       1.0  0.4531063755134267  0.8501165536670541  0.13802304456709974  1.0000
  C   C34       1.0  0.5468936243974504  0.14988344660249286  0.8619769549298794  1.0000
  C   C35       1.0  0.38156038214482213  0.8966942636676984  0.21388114228081176  1.0000
  C   C36       1.0  0.6184396184440722  0.10330573647195333  0.786118857948539  1.0000
  C   C37       1.0  0.42882621255786285  0.9756286362055135  0.2422723177035584  1.0000
  C   C38       1.0  0.5711737871375858  0.02437136394166316  0.7577276825267839  1.0000
  C   C39       1.0  0.5487380051432645  0.00810319214025937  0.1986223320171423  1.0000
  C   C40       1.0  0.4512619947992939  0.9918968074069253  0.8013776674787298  1.0000
  C   C41       1.0  0.4029719390293233  0.7671675908352863  0.1009632771438836  1.0000
  C   C42       1.0  0.5970280615595711  0.23283240930436555  0.8990367230854672  1.0000
  C   C43       1.0  0.4464233531317566  0.6671775534547149  0.1432606774593986  1.0000
  C   C44       1.0  0.5535766465636921  0.3328224466924618  0.8567393227709437  1.0000
  C   C45       1.0  0.5471839432587107  0.6187936516252749  0.09250288948462068  1.0000
  C   C46       1.0  0.4528160573301837  0.3812063485143769  0.90749711074473  1.0000
  C   C47       1.0  0.5844526847231702  0.5241156727929186  0.12639132200772102  1.0000
  C   C48       1.0  0.41554731518770704  0.4758843274766281  0.8736086774892581  1.0000
  C   C49       1.0  0.5116318828158748  0.47424516626983165  0.21511576953173434  1.0000
  C   C50       1.0  0.4883681170950025  0.5257548339997152  0.7848842299652449  1.0000
  C   C51       1.0  0.41226305540900954  0.5213942088073132  0.26918953110027627  1.0000
  C   C52       1.0  0.5877369454269944  0.4786057907323465  0.7308104683946043  1.0000
  C   C53       1.0  0.3827072507927512  0.6181718747569657  0.23572953926878215  1.0000
  C   C54       1.0  0.6172927489026976  0.38182812539021105  0.76427046096156  1.0000
  C   C55       1.0  0.7003299987348852  0.4773801836721335  0.07209611088916522  1.0000
  C   C56       1.0  0.29967000185400927  0.5226198164675182  0.9279038893401854  1.0000
  C   C57       1.0  0.08187731576945313  0.7255820468921513  0.9832255831146559  1.0000
  C   C58       1.0  0.9181226841414242  0.2744179533773956  0.016774416382323232  1.0000
  C   C59       1.0  0.7913684053150591  0.0005588728986310955  0.9654127107861701  1.0000
  C   C60       1.0  0.2086315944120708  0.9994411265261832  0.034587289443065126  1.0000
  C   C61       1.0  0.4296862586417229  0.7830743440402005  0.9887464676994075  1.0000
  C   C62       1.0  0.5703137412691542  0.21692565622934654  0.011253531797571548  1.0000
  C   C63       1.0  0.7269377664183362  0.5086662442708862  0.9608042214617014  1.0000
  C   C64       1.0  0.27306223327711254  0.4913337558762906  0.039195778768640895  1.0000
  C   C65       1.0  0.5939423529328934  0.7835118539872685  0.3349892338832852  1.0000
  C   C66       1.0  0.40605764679423656  0.21648814543754588  0.6650107663459499  1.0000
  C   C67       1.0  0.5490289713407153  0.8418364066236604  0.4190067619599945  1.0000
  C   C68       1.0  0.45097102835473335  0.15816359352351625  0.5809932382703479  1.0000
  C   C69       1.0  0.7425044103693805  0.7032037985011393  0.4258624535755592  1.0000
  C   C70       1.0  0.25749558932606803  0.29679620164603737  0.5741375466547831  1.0000
  C   C71       1.0  0.6817819107633519  0.7476520749290316  0.5170999778818927  1.0000
  C   C72       1.0  0.3182180889320968  0.2523479252181451  0.48290002234844964  1.0000
  C   C73       1.0  0.5453227593254693  0.6259522979728462  0.4438237065377689  1.0000
  C   C74       1.0  0.4546772405854081  0.37404770229670065  0.5561762929592102  1.0000
  C   C75       1.0  0.4781275532696231  0.686282598385135  0.5212351208515438  1.0000
  C   C76       1.0  0.5218724466729354  0.3137174011620497  0.4787648786443283  1.0000
  C   C77       1.0  0.7012745378893076  0.6349678362716487  0.2887309517597555  1.0000
  C   C78       1.0  0.2987254627312679  0.3650321631456409  0.7112690484684883  1.0000
  C   C79       1.0  0.49670544433044667  0.82985646740046  0.5979600363270133  1.0000
  C   C80       1.0  0.5032945553966831  0.17014353202435428  0.40203996390222196  1.0000
  C   C81       1.0  0.06854958477090031  0.15272122002015226  0.2273203721614541  1.0000
  C   C82       1.0  0.9314504149245484  0.8472787801270244  0.7726796280688881  1.0000
  C   C83       1.0  0.157641314538672  0.23781788241397914  0.18395687573126612  1.0000
  C   C84       1.0  0.8423586851567768  0.7621821177331976  0.8160431244990761  1.0000
  C   C85       1.0  0.26731925192527184  0.23337378061402939  0.23067221797997386  1.0000
  C   C86       1.0  0.7326807480172866  0.7666262189331552  0.7693277815158982  1.0000
  N   N1        1.0  0.6461300406008068  0.6866048616300031  0.37251068777771196  1.0000
  N   N2        1.0  0.3538699600197689  0.3133951377872863  0.6274893124505316  1.0000
  N   N3        1.0  0.5512221197107747  0.7765621825063486  0.5145718868376402  1.0000
  N   N4        1.0  0.4487778808781197  0.2234378176333032  0.4854281133917105  1.0000
  O   O1        1.0  0.07974072292508748  0.5586234667367528  0.2525002016943481  1.0000
  O   O2        1.0  0.9202592778792353  0.4413765335252692  0.7474997978016394  1.0000
  O   O3        1.0  0.7683315888363103  0.34424692856790734  0.22804412143111275  1.0000
  O   O4        1.0  0.2316684111062483  0.6557530709792773  0.7719558780647593  1.0000
  O   O5        1.0  0.8114799952932865  0.03244619499933322  0.2526515015783707  1.0000
  O   O6        1.0  0.18852000443384334  0.9675538044254812  0.7473484986508645  1.0000
  O   O7        1.0  0.0502382660939515  0.7436013148801526  0.29095058718202604  1.0000
  O   O8        1.0  0.9497617336014974  0.25639868526702414  0.7090494130483161  1.0000
  O   O9        1.0  0.26394069271061665  0.8690617044182346  0.26220817284015596  1.0000
  O   O10       1.0  0.7360593078782779  0.13093829572141713  0.7377918273891948  1.0000
  O   O11       1.0  0.588884805352111  0.08457849038752774  0.23125234661079447  1.0000
  O   O12       1.0  0.4111151954522119  0.9154215098744941  0.7687476528851932  1.0000
  O   O13       1.0  0.5327786934927417  0.3791076016467545  0.2518831630507194  1.0000
  O   O14       1.0  0.4672213062027069  0.6208923985004221  0.748116837179623  1.0000
  O   O15       1.0  0.2921678527623385  0.6678871746038554  0.29103329367582276  1.0000
  O   O16       1.0  0.7078321480736658  0.3321128249358043  0.7089667058190577  1.0000
  O   O17       1.0  0.019743817042170368  0.14968858253409978  0.33046992124059066  1.0000
  O   O18       1.0  0.9802561826849594  0.8503114168907147  0.6695300789886446  1.0000
  O   O19       1.0  0.8151748417386504  0.2508879477491445  0.38239710209835187  1.0000
  O   O20       1.0  0.1848251579567983  0.7491120523980321  0.6176028981319903  1.0000
  O   O21       1.0  0.08816096198585449  0.9706489267073728  0.402299466319059  1.0000
  O   O22       1.0  0.9118390379250227  0.029351073562174215  0.59770053317792  1.0000
  O   O23       1.0  0.1441598912156396  0.4151066908146981  0.38301246844772346  1.0000
  O   O24       1.0  0.8558401084798091  0.5848933093324786  0.6169875317826188  1.0000
  O   O25       1.0  0.06866001202208914  0.3468306148793537  0.42867232283797807  1.0000
  O   O26       1.0  0.9313399885668053  0.6531693852602981  0.5713276773913726  1.0000
  Cl  Cl1       1.0  0.23409646516471602  0.5696090983141641  0.5003721251444428  1.0000
  Cl  Cl2       1.0  0.7659035347461612  0.4303909019553828  0.49962787435253636  1.0000
  Cl  Cl3       1.0  0.736943487168601  0.004783496895524072  0.46844992638246685  1.0000
  Cl  Cl4       1.0  0.26305651342029335  0.9952165032441278  0.5315500738468839  1.0000
