data_image0
_chemical_formula_structural       H12C22O2F8
_chemical_formula_sum              "H12 C22 O2 F8"
_cell_length_a       6.856535585575567
_cell_length_b       8.098053880222396
_cell_length_c       8.389049991619114
_cell_angle_alpha    97.78658232763605
_cell_angle_beta     103.99312073336948
_cell_angle_gamma    92.67297670787084

_space_group_name_H-M_alt    "P 1"
_space_group_IT_number       1

loop_
  _space_group_symop_operation_xyz
  'x, y, z'

loop_
  _atom_site_type_symbol
  _atom_site_label
  _atom_site_symmetry_multiplicity
  _atom_site_fract_x
  _atom_site_fract_y
  _atom_site_fract_z
  _atom_site_occupancy
  H   H1        1.0  0.3340019237889674  0.904599922025858  0.052875941390624744  1.0000
  H   H2        1.0  0.6659980768810775  0.09540007829856677  0.9471240589717012  1.0000
  H   H3        1.0  0.45935024937113605  0.20218723940223937  0.13828978189354893  1.0000
  H   H4        1.0  0.5406497497959164  0.7978127609229003  0.8617102181696263  1.0000
  H   H5        1.0  0.5885174362065603  0.32090070368211293  0.4366443097482986  1.0000
  H   H6        1.0  0.4114825628379157  0.6790992953929839  0.5633556889345789  1.0000
  H   H7        1.0  0.1364840113967631  0.6622073975682579  0.032687045492734955  1.0000
  H   H8        1.0  0.8635159892761202  0.33779260275675227  0.9673129536782005  1.0000
  H   H9        1.0  0.23383871045385457  0.4748135963375637  0.10188696350636821  1.0000
  H   H10       1.0  0.7661612900907754  0.5251864027362328  0.8981130366670503  1.0000
  H   H11       1.0  0.39306663286857296  0.6215164083638617  0.03796301300990957  1.0000
  H   H12       1.0  0.6069333678043102  0.3784835919611485  0.9620369861610261  1.0000
  C   C1        1.0  0.9781330070593084  0.8477761967327385  0.6447373847342361  1.0000
  C   C2        1.0  0.021866993610736418  0.1522238035916863  0.3552626156280898  1.0000
  C   C3        1.0  0.8928817815725786  0.7065686554316406  0.5348472574408977  1.0000
  C   C4        1.0  0.10711821759447404  0.2934313448934992  0.46515274262227746  1.0000
  C   C5        1.0  0.8515820782914729  0.7083216527162745  0.36272683247837156  1.0000
  C   C6        1.0  0.14841792237857196  0.2916783476081503  0.6372731678839544  1.0000
  C   C7        1.0  0.8936817030807958  0.852052323676067  0.3026616132988668  1.0000
  C   C8        1.0  0.10631829758924902  0.14794767664835792  0.6973383870634591  1.0000
  C   C9        1.0  0.9780823856340091  0.0011138073454063633  0.4113875638851382  1.0000
  C   C10       1.0  0.021917615036035742  0.9988861929790185  0.5886124364771878  1.0000
  C   C11       1.0  0.3943405369793851  0.8496458633925638  0.30364853270076475  1.0000
  C   C12       1.0  0.6056594636906598  0.15035413693186103  0.6963514676615612  1.0000
  C   C13       1.0  0.3921632278150547  0.9525703338186927  0.18421048438619875  1.0000
  C   C14       1.0  0.60783677285499  0.04742966650573226  0.8157895159761271  1.0000
  C   C15       1.0  0.46318082502832203  0.1228086431964393  0.23382382438221214  1.0000
  C   C16       1.0  0.5368191741387305  0.8771913571287003  0.766176175680963  1.0000
  C   C17       1.0  0.5342341567280771  0.18968254475744611  0.3992151392880091  1.0000
  C   C18       1.0  0.4657658438165529  0.8103174543163505  0.6007848608854095  1.0000
  C   C19       1.0  0.5353324416556465  0.08634335524880812  0.5230628709756951  1.0000
  C   C20       1.0  0.4646675590143984  0.9136566450756168  0.4769371293866308  1.0000
  C   C21       1.0  0.2701002386681166  0.6075256615879979  0.09980727333475929  1.0000
  C   C22       1.0  0.7298997604989359  0.3924743387371418  0.9001927267284159  1.0000
  O   O1        1.0  0.3320356969822648  0.6835464594629703  0.269939064662128  1.0000
  O   O2        1.0  0.66796430368778  0.31645354086145455  0.7300609357001979  1.0000
  F   F1        1.0  0.018722561582326932  0.8371867745549548  0.808726395574904  1.0000
  F   F2        1.0  0.9812774375847256  0.16281322577018495  0.19127360448827116  1.0000
  F   F3        1.0  0.8482580959580198  0.5647814885253132  0.5902808587481433  1.0000
  F   F4        1.0  0.15174190458661005  0.4352185105484833  0.4097191414252753  1.0000
  F   F5        1.0  0.7691469195334666  0.5677817176372026  0.2578098005314882  1.0000
  F   F6        1.0  0.23085308113941672  0.4322182826878073  0.7421901986394472  1.0000
  F   F7        1.0  0.8532392930622601  0.8456288992938963  0.13567840238260867  1.0000
  F   F8        1.0  0.14676070610479247  0.1543711010312433  0.8643215976805666  1.0000
