data_image0
_chemical_formula_structural       H88C76O28S8
_chemical_formula_sum              "H88 C76 O28 S8"
_cell_length_a       7.722859601067125
_cell_length_b       12.067693647562802
_cell_length_c       21.12615598597514
_cell_angle_alpha    90.0
_cell_angle_beta     97.01706305815034
_cell_angle_gamma    90.0

_space_group_name_H-M_alt    "P 1"
_space_group_IT_number       1

loop_
  _space_group_symop_operation_xyz
  'x, y, z'

loop_
  _atom_site_type_symbol
  _atom_site_label
  _atom_site_symmetry_multiplicity
  _atom_site_fract_x
  _atom_site_fract_y
  _atom_site_fract_z
  _atom_site_occupancy
  H   H1        1.0  0.6658616863378549  0.5526691507740558  0.66184193111176  1.0000
  H   H2        1.0  0.8341383131687066  0.052669151087404775  0.8381580691092977  1.0000
  H   H3        1.0  0.33413831333318605  0.44733084859924616  0.3381580690356117  1.0000
  H   H4        1.0  0.1658616865023344  0.9473308491145558  0.16184193103807415  1.0000
  H   H5        1.0  0.5704019701331735  0.3875733670902885  0.6310953521661958  1.0000
  H   H6        1.0  0.929598029373388  0.8875733676055981  0.8689046480548618  1.0000
  H   H7        1.0  0.42959802953786747  0.6124266331116721  0.36890464798117584  1.0000
  H   H8        1.0  0.07040197029765301  0.11242663259636243  0.13109535209251  1.0000
  H   H9        1.0  0.6076103462520012  0.34326305348633046  0.48889959333318345  1.0000
  H   H10       1.0  0.8923896536352489  0.8432630531729813  0.011100406691113332  1.0000
  H   H11       1.0  0.3923896534190398  0.6567369467156302  0.5111004068141883  1.0000
  H   H12       1.0  0.10761034603579202  0.15673694702897922  0.9888995934562583  1.0000
  H   H13       1.0  0.4860709022377654  0.2214482508461518  0.6440096848854067  1.0000
  H   H14       1.0  0.013929098513822805  0.7214482505328027  0.855990314966765  1.0000
  H   H15       1.0  0.513929098730032  0.7785517493558088  0.3559903148436901  1.0000
  H   H16       1.0  0.9860709011572182  0.27855174966915786  0.14400968518060667  1.0000
  H   H17       1.0  0.30896178395887913  0.04899859387128371  0.6450743670071839  1.0000
  H   H18       1.0  0.19103821679270916  0.5489985943865934  0.854925632844988  1.0000
  H   H19       1.0  0.6910382170089183  0.9510014055020182  0.35492563272191296  1.0000
  H   H20       1.0  0.8089617828783319  0.4510014058153672  0.14507436730238382  1.0000
  H   H21       1.0  0.1973798540677133  0.9562796344544796  0.5442082804400781  1.0000
  H   H22       1.0  0.3026201453792695  0.4562796339391698  0.9557917193566796  1.0000
  H   H23       1.0  0.8026201455954787  0.0437203657474811  0.45579171923360473  1.0000
  H   H24       1.0  0.6973798542917714  0.543720365434132  0.04420828079069196  1.0000
  H   H25       1.0  0.26376836135176346  0.03340983221606943  0.44020239427106445  1.0000
  H   H26       1.0  0.236231638483757  0.5334098319027204  0.05979760580262137  1.0000
  H   H27       1.0  0.7362316383192774  0.9665901679858911  0.5597976058763072  1.0000
  H   H28       1.0  0.7637683611794349  0.4665901682992403  0.9402023938710615  1.0000
  H   H29       1.0  0.4456101648608807  0.20331086300782164  0.4385922014011696  1.0000
  H   H30       1.0  0.05438983497463976  0.7033108626944726  0.0614077986725162  1.0000
  H   H31       1.0  0.5543898348101602  0.7966891371941389  0.5614077987462021  1.0000
  H   H32       1.0  0.9456101659931576  0.29668913750748804  0.9385922010565806  1.0000
  H   H33       1.0  0.7437242951971837  0.47350561978792255  0.4782405458413291  1.0000
  H   H34       1.0  0.7562757046822173  0.9735056194745735  0.0217594537092789  1.0000
  H   H35       1.0  0.25627570446600817  0.5264943804140381  0.5217594538323539  1.0000
  H   H36       1.0  0.24372429498097467  0.02649438072738713  0.9782405459644041  1.0000
  H   H37       1.0  0.895324033430461  0.678533158790762  0.552541144001232  1.0000
  H   H38       1.0  0.6046759673807058  0.1785331582754523  0.9474588562752396  1.0000
  H   H39       1.0  0.10467596754518538  0.32146684141119863  0.4474588562015537  1.0000
  H   H40       1.0  0.3953240335949406  0.8214668410978496  0.05254114392754614  1.0000
  H   H41       1.0  0.058284219856656376  0.8010591346054214  0.49963598459302055  1.0000
  H   H42       1.0  0.4417157799788641  0.3010591349187706  0.0003640154806652755  1.0000
  H   H43       1.0  0.9417157798065355  0.19894086559653912  0.5003640150806622  1.0000
  H   H44       1.0  0.5582842196921768  0.6989408652831901  0.9996359846667063  1.0000
  H   H45       1.0  0.14729944531248176  0.8814098758753436  0.39971782788169913  1.0000
  H   H46       1.0  0.3527005545151897  0.38140987618869254  0.10028217171829791  1.0000
  H   H47       1.0  0.8527005543507101  0.1185901243266171  0.6002821717919838  1.0000
  H   H48       1.0  0.6472994451480023  0.6185901240132681  0.899717827955385  1.0000
  H   H49       1.0  0.05642937759246154  0.7892825007140978  0.2953465129175338  1.0000
  H   H50       1.0  0.44357062223520993  0.28928250019878815  0.20465348668246322  1.0000
  H   H51       1.0  0.9435706220707304  0.2107174994878628  0.7046534867561491  1.0000
  H   H52       1.0  0.556429377427982  0.7107175000031726  0.7953465129912197  1.0000
  H   H53       1.0  0.8744310572792082  0.619846435322021  0.29103502497652356  1.0000
  H   H54       1.0  0.6255689426080419  0.1198464356353701  0.20896497504777323  1.0000
  H   H55       1.0  0.12556894238398372  0.3801535648799396  0.7089649746971594  1.0000
  H   H56       1.0  0.37443105706299906  0.8801535645665906  0.7910350250995984  1.0000
  H   H57       1.0  0.7882818294867646  0.5381194990238672  0.39018121410038886  1.0000
  H   H58       1.0  0.7117181704004855  0.03811949933721634  0.1098187859239079  1.0000
  H   H59       1.0  0.2117181701842763  0.46188050034943456  0.6098187860469828  1.0000
  H   H60       1.0  0.2882818292705555  0.9618805008647443  0.8901812142234639  1.0000
  H   H61       1.0  0.44146141246896775  0.3624420628943745  0.8505722710285935  1.0000
  H   H62       1.0  0.058538586985864026  0.8624420634096842  0.6494277292418532  1.0000
  H   H63       1.0  0.5585385872020732  0.6375579364789274  0.14942772911877833  1.0000
  H   H64       1.0  0.941461412685177  0.13755793679227646  0.35057227090551846  1.0000
  H   H65       1.0  0.22584593101212166  0.09592577702150984  0.7675907999120681  1.0000
  H   H66       1.0  0.2741540684427102  0.5959257767081607  0.7324092003583785  1.0000
  H   H67       1.0  0.7741540686589192  0.9040742231804507  0.2324092002353036  1.0000
  H   H68       1.0  0.7258459312283307  0.4040742226651411  0.2675907997889932  1.0000
  H   H69       1.0  0.44264450972501856  0.0958509449925925  0.8118981611803544  1.0000
  H   H70       1.0  0.05735549102656969  0.5958509446792434  0.6881018386718175  1.0000
  H   H71       1.0  0.5573554912506278  0.9041490552093682  0.18810183902243138  1.0000
  H   H72       1.0  0.9426445086366223  0.40414905469405843  0.3118981610018654  1.0000
  H   H73       1.0  0.3815024854968915  0.20436385294700246  0.7551027282088876  1.0000
  H   H74       1.0  0.11849751525469682  0.7043638526336534  0.7448972716432841  1.0000
  H   H75       1.0  0.6184975141741494  0.7956361472549581  0.24489727193848415  1.0000
  H   H76       1.0  0.8815024857131006  0.29563614756830725  0.25510272808581264  1.0000
  H   H77       1.0  0.829109405962455  0.5312437162584706  0.8243119682575826  1.0000
  H   H78       1.0  0.6708905948408629  0.031243716571819596  0.6756880315452  1.0000
  H   H79       1.0  0.17089059500534237  0.4687562839434901  0.17568803147151416  1.0000
  H   H80       1.0  0.3291094048301781  0.968756283630141  0.3243119686021717  1.0000
  H   H81       1.0  0.8962260740773788  0.44707424695767023  0.7613208792532076  1.0000
  H   H82       1.0  0.6037739267337882  0.9470742466443212  0.7386791210232639  1.0000
  H   H83       1.0  0.10377392689826764  0.5529257532442904  0.23867912094957813  1.0000
  H   H84       1.0  0.3962260729372528  0.0529257527289807  0.26132087912410773  1.0000
  H   H85       1.0  0.8381797048645422  0.38175728391401603  0.8310649023471037  1.0000
  H   H86       1.0  0.6618202946420193  0.8817572844293257  0.6689350978739539  1.0000
  H   H87       1.0  0.16182029480649884  0.6182427154592859  0.168935097800268  1.0000
  H   H88       1.0  0.3381797050290216  0.11824271577263488  0.33106490227341784  1.0000
  C   C1        1.0  0.7050554815482114  0.5020188858724898  0.5761041726992917  1.0000
  C   C2        1.0  0.7949445179583499  0.0020188853571801125  0.923895827521766  1.0000
  C   C3        1.0  0.29494451812282946  0.4979811143294708  0.4238958274480801  1.0000
  C   C4        1.0  0.205055481712691  0.9979811140161218  0.0761041726256058  1.0000
  C   C5        1.0  0.6099686331950491  0.40224744029530096  0.5839995265625422  1.0000
  C   C6        1.0  0.8900313676082687  0.9022474408106106  0.9160004732402405  1.0000
  C   C7        1.0  0.3900313664681428  0.597752559078001  0.4160004731111407  1.0000
  C   C8        1.0  0.1099686333673777  0.09775255939135001  0.08399952696254517  1.0000
  C   C9        1.0  0.5702087550735175  0.32676476923959624  0.5361956149337141  1.0000
  C   C10       1.0  0.9297912457298002  0.8267647689262472  0.9638043848690685  1.0000
  C   C11       1.0  0.42979124590212886  0.6732352309623644  0.4638043852690715  1.0000
  C   C12       1.0  0.07020875393339161  0.17323523127571347  0.036195614804614334  1.0000
  C   C13       1.0  0.4761095059710868  0.22457171015004396  0.540924827378164  1.0000
  C   C14       1.0  0.023890493475895988  0.7245717098366948  0.9590751724185936  1.0000
  C   C15       1.0  0.5238904936999541  0.7754282900519167  0.4590751727692077  1.0000
  C   C16       1.0  0.976109506187296  0.2754282903652657  0.04092482725508909  1.0000
  C   C17       1.0  0.43809967777823805  0.179837293138304  0.5994945492603451  1.0000
  C   C18       1.0  0.06190032297335026  0.6798372928249549  0.9005054505918266  1.0000
  C   C19       1.0  0.5619003231974083  0.8201627070636567  0.40050545094244056  1.0000
  C   C20       1.0  0.9380996766898416  0.320162706548347  0.09949454908185618  1.0000
  C   C21       1.0  0.3396519945566665  0.08362776347109355  0.6001500887322916  1.0000
  C   C22       1.0  0.1603480048981653  0.5836277631577445  0.8998499115381551  1.0000
  C   C23       1.0  0.6603480051143745  0.9163722367308671  0.3998499114150801  1.0000
  C   C24       1.0  0.8396519947728757  0.41637223621555736  0.10015008860921669  1.0000
  C   C25       1.0  0.27563690455106926  0.03116427388558654  0.5428766997772746  1.0000
  C   C26       1.0  0.224363096208368  0.5311642744008962  0.957123300548586  1.0000
  C   C27       1.0  0.7243630964245772  0.9688357254877152  0.4571233004255111  1.0000
  C   C28       1.0  0.775636903462673  0.4688357258010644  0.04287669959878573  1.0000
  C   C29       1.0  0.3127329389987589  0.0743547786516123  0.48474244430869495  1.0000
  C   C30       1.0  0.1872670608367616  0.574354779166922  0.015257555764990846  1.0000
  C   C31       1.0  0.6872670619768875  0.9256452215503483  0.5152575558940907  1.0000
  C   C32       1.0  0.8127329388342794  0.4256452210350386  0.984742444382381  1.0000
  C   C33       1.0  0.4142321434308487  0.1693081610845033  0.48365653922242363  1.0000
  C   C34       1.0  0.0857678564046718  0.6693081615998131  0.01634346085126222  1.0000
  C   C35       1.0  0.5857678575447978  0.8306918382887987  0.516343460980362  1.0000
  C   C36       1.0  0.9142321432585201  0.3306918386021476  0.9836565388224208  1.0000
  C   C37       1.0  0.7711718596130305  0.530526481445193  0.5179790138532724  1.0000
  C   C38       1.0  0.7288281411902874  0.03052648175854208  0.9820209859495103  1.0000
  C   C39       1.0  0.22882814005016144  0.46947351875676757  0.4820209858204104  1.0000
  C   C40       1.0  0.27117185977751007  0.9694735184434186  0.017979013779586567  1.0000
  C   C41       1.0  0.8628216675921546  0.6253943819268407  0.5109544275514026  1.0000
  C   C42       1.0  0.6371783319144068  0.12539438141153103  0.9890455726696551  1.0000
  C   C43       1.0  0.13717833207888633  0.3746056182751199  0.4890455725959691  1.0000
  C   C44       1.0  0.36282166775663416  0.8746056187904295  0.010954427477716744  1.0000
  C   C45       1.0  0.9188219563580092  0.6642952617229407  0.45212878137549556  1.0000
  C   C46       1.0  0.5811780435213918  0.16429526203628977  0.04787121817511237  1.0000
  C   C47       1.0  0.08117804330518268  0.33570473847901994  0.5478712182981873  1.0000
  C   C48       1.0  0.4188219561418001  0.8357047381656708  0.9521287814985705  1.0000
  C   C49       1.0  0.02075726309851868  0.7614498758721642  0.45369711182111083  1.0000
  C   C50       1.0  0.4792427367370018  0.2614498753568546  0.04630288825257503  1.0000
  C   C51       1.0  0.9792427365725223  0.23855012432979636  0.5463028883262608  1.0000
  C   C52       1.0  0.5207572629340391  0.738550124845106  0.9536971118947967  1.0000
  C   C53       1.0  0.07031564052441165  0.8056928286345447  0.3978721399262816  1.0000
  C   C54       1.0  0.4296843593111088  0.3056928289478938  0.10212786014740426  1.0000
  C   C55       1.0  0.9296843591387802  0.1943071715674159  0.6021278597474012  1.0000
  C   C56       1.0  0.5703156403599321  0.6943071712540668  0.8978721399999674  1.0000
  C   C57       1.0  0.019505221501073092  0.7542239665520672  0.33935853062607896  1.0000
  C   C58       1.0  0.48049477833444737  0.2542239668654163  0.1606414694476069  1.0000
  C   C59       1.0  0.9804947781699678  0.24577603282123467  0.6606414695212928  1.0000
  C   C60       1.0  0.5195052213365936  0.7457760333365443  0.8393585306997647  1.0000
  C   C61       1.0  0.9179302944198863  0.6577018543723929  0.3371050015914532  1.0000
  C   C62       1.0  0.5820697067719693  0.15770185385708319  0.16289499848825756  1.0000
  C   C63       1.0  0.08206970654791113  0.34229814582956775  0.6628949981376436  1.0000
  C   C64       1.0  0.4179302942036771  0.8422981455162186  0.8371050017145281  1.0000
  C   C65       1.0  0.8682945090254107  0.6126808125837057  0.39265026015410864  1.0000
  C   C66       1.0  0.6317054908618392  0.11268081289705474  0.10734973987018812  1.0000
  C   C67       1.0  0.13170549194238668  0.3873191867895962  0.6073497395749882  1.0000
  C   C68       1.0  0.36829450880920156  0.8873191873049058  0.8926502602771837  1.0000
  C   C69       1.0  0.3348980460759577  0.14668274168175416  0.7893192128306625  1.0000
  C   C70       1.0  0.16510195337102512  0.6466827413684051  0.7106807869660954  1.0000
  C   C71       1.0  0.6651019535950833  0.8533172585202065  0.21068078731670917  1.0000
  C   C72       1.0  0.8348980462921667  0.3533172588335555  0.28931921270758765  1.0000
  C   C73       1.0  0.8106829091865712  0.45227875096931164  0.7988784622967289  1.0000
  C   C74       1.0  0.6893170903121415  0.9522787506559626  0.70112153745064  1.0000
  C   C75       1.0  0.18931709047662088  0.547721249232649  0.20112153737695407  1.0000
  C   C76       1.0  0.31068290935105053  0.04772124954599806  0.298878462223043  1.0000
  O   O1        1.0  0.7327347478105186  0.5725817858655615  0.6238024695906573  1.0000
  O   O2        1.0  0.7672652516881937  0.07258178535025177  0.8761975301567113  1.0000
  O   O3        1.0  0.26726525185267325  0.4274182143363992  0.3761975300830255  1.0000
  O   O4        1.0  0.2327347479828472  0.92741821402305  0.12380246999066039  1.0000
  O   O5        1.0  0.11942774240251361  0.2999263741444895  0.820888235489165  1.0000
  O   O6        1.0  0.3805722570444692  0.7999263738311404  0.6791117643075928  1.0000
  O   O7        1.0  0.8805722572606783  0.7000736260574711  0.17911176418451788  1.0000
  O   O8        1.0  0.6194277426265717  0.20007362637082016  0.32088823583977893  1.0000
  O   O9        1.0  0.21062558165699918  0.15156485434724254  0.8993257195907858  1.0000
  O   O10       1.0  0.28937441909458905  0.6515648540338935  0.6006742802613859  1.0000
  O   O11       1.0  0.7893744180061928  0.8484351458547181  0.10067428008289699  1.0000
  O   O12       1.0  0.7106255818810574  0.34843514616806714  0.3993257199413998  1.0000
  O   O13       1.0  0.41552018475796243  0.29469146830042553  0.879830854983695  1.0000
  O   O14       1.0  0.08447981468902035  0.7946914688157352  0.620169144813063  1.0000
  O   O15       1.0  0.5844798149130785  0.7053085319015351  0.12016914516367687  1.0000
  O   O16       1.0  0.9155201849741716  0.2053085313862254  0.37983085486061996  1.0000
  O   O17       1.0  0.5651696047743449  0.5384784068753998  0.7180878774644679  1.0000
  O   O18       1.0  0.9348303960368219  0.038478407188748905  0.7819121228120035  1.0000
  O   O19       1.0  0.43483039620130143  0.46152159332656084  0.2819121227383177  1.0000
  O   O20       1.0  0.06516960363421902  0.9615215930132117  0.2180878773353682  1.0000
  O   O21       1.0  0.4800825396808904  0.4586934961775341  0.8145110596186187  1.0000
  O   O22       1.0  0.01991745976609245  0.9586934958641851  0.685488940178139  1.0000
  O   O23       1.0  0.5199174599823015  0.5413065040244266  0.18548894005506406  1.0000
  O   O24       1.0  0.9800825399049484  0.041306503509116854  0.31451105996923273  1.0000
  O   O25       1.0  0.5708037913043388  0.3352054202019756  0.7316064914065977  1.0000
  O   O26       1.0  0.9291962082022227  0.8352054198886264  0.7683935088144599  1.0000
  O   O27       1.0  0.4291962083667022  0.6647945799999851  0.26839350874077395  1.0000
  O   O28       1.0  0.07080379146881828  0.16479458031333413  0.2316064913329119  1.0000
  S   S1        1.0  0.25360671178146  0.22580301833816663  0.8496706265713873  1.0000
  S   S2        1.0  0.24639328897797724  0.7258030180248175  0.6503293737544734  1.0000
  S   S3        1.0  0.7463932878895809  0.774196981863794  0.15032937357598447  1.0000
  S   S4        1.0  0.7536067119976692  0.27419698134848436  0.3496706264483123  1.0000
  S   S5        1.0  0.5921283292609637  0.44322018077416275  0.762602617846458  1.0000
  S   S6        1.0  0.9078716702455978  0.9432201804608137  0.7373973823745996  1.0000
  S   S7        1.0  0.40787167041007727  0.5567798194277979  0.23739738230091373  1.0000
  S   S8        1.0  0.09212832942544322  0.0567798189124882  0.26260261777277216  1.0000
