data_image0
_chemical_formula_structural       H86B44C42O32P2Br24
_chemical_formula_sum              "H86 B44 C42 O32 P2 Br24"
_cell_length_a       9.31330823100409
_cell_length_b       15.404370423598996
_cell_length_c       19.691926556848752
_cell_angle_alpha    99.55000576779484
_cell_angle_beta     102.10807155892942
_cell_angle_gamma    95.47047736418203

_space_group_name_H-M_alt    "P 1"
_space_group_IT_number       1

loop_
  _space_group_symop_operation_xyz
  'x, y, z'

loop_
  _atom_site_type_symbol
  _atom_site_label
  _atom_site_symmetry_multiplicity
  _atom_site_fract_x
  _atom_site_fract_y
  _atom_site_fract_z
  _atom_site_occupancy
  H   H1        1.0  0.8138116255210871  0.8514183824132908  0.9934177871262705  1.0000
  H   H2        1.0  0.1861883749765893  0.14858161758253222  0.006582213064550541  1.0000
  H   H3        1.0  0.6423077455708726  0.10722694525977274  0.16754614627638736  1.0000
  H   H4        1.0  0.35769225502944796  0.8927730553884822  0.8324538539156731  1.0000
  H   H5        1.0  0.13975666739162074  0.3907700968547763  0.10869324705127181  1.0000
  H   H6        1.0  0.8602433320319061  0.6092299031404022  0.8913067531388349  1.0000
  H   H7        1.0  0.2241706565340723  0.12703553351369884  0.15764656302160066  1.0000
  H   H8        1.0  0.775829343963604  0.8729644664821241  0.8423534371692204  1.0000
  H   H9        1.0  0.6302901683283959  0.4801714236827389  0.08897061768964978  1.0000
  H   H10       1.0  0.3697098321692806  0.5198285763130841  0.9110293825011713  1.0000
  H   H11       1.0  0.8107658317429509  0.2620860458230285  0.11244461433515134  1.0000
  H   H12       1.0  0.18923416742758922  0.7379139540467813  0.8875553853258394  1.0000
  H   H13       1.0  0.44784239574314094  0.26045783982980014  0.0556525195366311  1.0000
  H   H14       1.0  0.5521576047545356  0.7395421601660229  0.94434748065419  1.0000
  H   H15       1.0  0.6975018943285697  0.013700936511499224  0.028559162652115225  1.0000
  H   H16       1.0  0.3024981061691068  0.9862990634843238  0.9714408375387059  1.0000
  H   H17       1.0  0.05559038265437557  0.0315606974246966  0.051766613610189166  1.0000
  H   H18       1.0  0.944409617590314  0.9684393024457577  0.9482333860515157  1.0000
  H   H19       1.0  0.08135454542309234  0.7881725454989122  0.9922076338584562  1.0000
  H   H20       1.0  0.9186454550745841  0.2118274544969108  0.0077923663323649535  1.0000
  H   H21       1.0  0.77790080555608  0.6672474488571063  0.991007931286472  1.0000
  H   H22       1.0  0.22209919397009098  0.33275255179050417  0.008992068904874178  1.0000
  H   H23       1.0  0.5069192668207997  0.8911136830570042  0.06031978958345681  1.0000
  H   H24       1.0  0.49308073260272745  0.10888631693817429  0.9396802106066502  1.0000
  H   H25       1.0  0.6406032118890073  0.06214513230245174  0.6020453521948617  1.0000
  H   H26       1.0  0.3593967886086692  0.9378548676933713  0.3979546479959593  1.0000
  H   H27       1.0  0.7328136070721388  0.9394939565546289  0.5335900734612777  1.0000
  H   H28       1.0  0.2671863931725507  0.06050604331582534  0.46640992620042715  1.0000
  H   H29       1.0  0.8013866208308466  0.9567673593510138  0.41993047481765944  1.0000
  H   H30       1.0  0.19861337941384308  0.04323264051944046  0.5800695248440454  1.0000
  H   H31       1.0  0.7764398742775385  0.09772148057142979  0.37581907090986727  1.0000
  H   H32       1.0  0.22356012514598858  0.9022785194237487  0.6241809292802395  1.0000
  H   H33       1.0  0.6891539321904169  0.22251382511963474  0.44465651329484535  1.0000
  H   H34       1.0  0.3108460672331102  0.7774861748755438  0.5553434868952615  1.0000
  H   H35       1.0  0.9017302347334234  0.2846165344851951  0.5868964101978992  1.0000
  H   H36       1.0  0.09826976551126614  0.7153834653852591  0.41310358946380576  1.0000
  H   H37       1.0  0.05692629201449238  0.42225952572552833  0.5813561039311581  1.0000
  H   H38       1.0  0.9430737084831841  0.5777404742702947  0.4186438962596629  1.0000
  H   H39       1.0  0.9416269083581206  0.559382650227261  0.5676075358927221  1.0000
  H   H40       1.0  0.05837309213955574  0.44061734976856204  0.43239246429809886  1.0000
  H   H41       1.0  0.6707565204807945  0.5580116298936211  0.5591845393571251  1.0000
  H   H42       1.0  0.3292434789427324  0.4419883701015575  0.44081546083298173  1.0000
  H   H43       1.0  0.5142594949187251  0.4202316966454236  0.5620010120216591  1.0000
  H   H44       1.0  0.48574050557895126  0.5797683033503994  0.4379989881691619  1.0000
  H   H45       1.0  0.43816948612053247  0.2579158834700587  0.4360106422594524  1.0000
  H   H46       1.0  0.5618305133029946  0.7420841165251197  0.5639893579306544  1.0000
  H   H47       1.0  0.17458731489272955  0.24977412276513045  0.37987894510445924  1.0000
  H   H48       1.0  0.8254126856049468  0.7502258772306926  0.6201210550863617  1.0000
  H   H49       1.0  0.9820636743015995  0.22832728631919044  0.4492362345141347  1.0000
  H   H50       1.0  0.01793632619607692  0.7716727136766325  0.5507637656766863  1.0000
  H   H51       1.0  0.05981947473211401  0.21318883620806517  0.5757630973683543  1.0000
  H   H52       1.0  0.9401805246914131  0.7868111637871132  0.42423690282175247  1.0000
  H   H53       1.0  0.32153901424776427  0.2248147691895672  0.6334408145332544  1.0000
  H   H54       1.0  0.6784609862499121  0.7751852308062558  0.36655918565756657  1.0000
  H   H55       1.0  0.5703018503229084  0.2817410920270336  0.6967183383061281  1.0000
  H   H56       1.0  0.42969815017476803  0.7182589079687893  0.3032816618846929  1.0000
  H   H57       1.0  0.7264823402618429  0.22460339752178562  0.6901952652991077  1.0000
  H   H58       1.0  0.27351766023583357  0.7753966024740374  0.3098047348917134  1.0000
  H   H59       1.0  0.5439747757349612  0.16396726090077296  0.6687256875898367  1.0000
  H   H60       1.0  0.4560252245097283  0.8360327389696814  0.3312743120718682  1.0000
  H   H61       1.0  0.40647827620577176  0.5223319224648427  0.08076005271008554  1.0000
  H   H62       1.0  0.5935217243945486  0.4776680781834122  0.919239947481975  1.0000
  H   H63       1.0  0.34029157091953316  0.6275485154599733  0.07324704178617217  1.0000
  H   H64       1.0  0.6597084293251564  0.3724514844104809  0.9267529578755327  1.0000
  H   H65       1.0  0.27346850957574925  0.5271692565550422  0.012741742208424178  1.0000
  H   H66       1.0  0.7265314898477778  0.47283074344013626  0.9872582579816827  1.0000
  H   H67       1.0  0.2489529983578548  0.7349441139509679  0.06668998023643498  1.0000
  H   H68       1.0  0.7510470018868348  0.2650558859194863  0.9333100194252699  1.0000
  H   H69       1.0  0.4262673331520506  0.7528597180745894  0.0720960684671164  1.0000
  H   H70       1.0  0.5737326662714765  0.24714028192058912  0.9279039317229905  1.0000
  H   H71       1.0  0.21769160321084213  0.4158228153738523  0.9333906126450808  1.0000
  H   H72       1.0  0.7823083970338475  0.584177184496602  0.06660938701662422  1.0000
  H   H73       1.0  0.1269575131044685  0.494958960358203  0.9070489999447283  1.0000
  H   H74       1.0  0.873042487393208  0.50504103963762  0.09295100024609275  1.0000
  H   H75       1.0  0.01798610141229043  0.19315370357118594  0.11475136742352249  1.0000
  H   H76       1.0  0.9820138980112365  0.8068462964239925  0.8852486327665843  1.0000
  H   H77       1.0  0.867012466953435  0.12506983725319967  0.086740274219765  1.0000
  H   H78       1.0  0.1329875332912545  0.8749301626172546  0.9132597254419399  1.0000
  H   H79       1.0  0.6881186997409744  0.02315179029315373  0.9260777273200409  1.0000
  H   H80       1.0  0.311881300756702  0.9768482097026694  0.07392227287078011  1.0000
  H   H81       1.0  0.5411965306523021  0.9588314678035522  0.9186247216725207  1.0000
  H   H82       1.0  0.45880346959238755  0.04116853206690208  0.08137527798918417  1.0000
  H   H83       1.0  0.9158842930354055  0.39355388735066504  0.1328112570926316  1.0000
  H   H84       1.0  0.08411570638812138  0.6064461126445133  0.8671887430974751  1.0000
  H   H85       1.0  0.0389856835196671  0.4670697912127796  0.18212288678171687  1.0000
  H   H86       1.0  0.9610143167250226  0.5329302086576747  0.8178771128799881  1.0000
  B   B1        1.0  0.6518979858846746  0.3201037438220527  0.15603644070491626  1.0000
  B   B2        1.0  0.3481020135388525  0.6798962561731259  0.8439635594851906  1.0000
  B   B3        1.0  0.5473560282848091  0.21932816619572493  0.16622831524487117  1.0000
  B   B4        1.0  0.4526439722128674  0.7806718338000981  0.8337716849459499  1.0000
  B   B5        1.0  0.35691765026567657  0.23666783987121237  0.1595348986189267  1.0000
  B   B6        1.0  0.643082349979013  0.7633321599992419  0.8404651010427782  1.0000
  B   B7        1.0  0.34142369101090875  0.34655734489232976  0.14229897588735385  1.0000
  B   B8        1.0  0.6585763084126184  0.6534426551028487  0.857701024302753  1.0000
  B   B9        1.0  0.5232783282895113  0.3995369159403789  0.14164477541712003  1.0000
  B   B10       1.0  0.47672167220816514  0.600463084055444  0.8583552247737009  1.0000
  B   B11       1.0  0.655240656124987  0.29533609860455085  0.24160941769541613  1.0000
  B   B12       1.0  0.3447593432985399  0.7046639013906275  0.7583905824946906  1.0000
  B   B13       1.0  0.47556025808312125  0.24522421593804541  0.24337000091684421  1.0000
  B   B14       1.0  0.5244397424145553  0.7547757840577776  0.7566299992739769  1.0000
  B   B15       1.0  0.34975885250270317  0.3247207870474046  0.22896491444951977  1.0000
  B   B16       1.0  0.6502411479949733  0.6752792129484184  0.7710350857413013  1.0000
  B   B17       1.0  0.4513713135029131  0.42313619246503803  0.2184844183687145  1.0000
  B   B18       1.0  0.5486286869947635  0.576863807530785  0.7815155818221066  1.0000
  B   B19       1.0  0.6409440140078928  0.40586173898059213  0.22656886983323085  1.0000
  B   B20       1.0  0.3590559864897837  0.5941382610152308  0.7734311303575903  1.0000
  B   B21       1.0  0.5332919996980182  0.3596758639731676  0.28050727666056496  1.0000
  B   B22       1.0  0.4667080007996583  0.6403241360226556  0.7194927235302561  1.0000
  B   B23       1.0  0.8181621165173399  0.7611567057601578  0.08255309133755177  1.0000
  B   B24       1.0  0.18183788398033654  0.23884329423566514  0.9174469088532693  1.0000
  B   B25       1.0  0.7053958901867481  0.8495573178436205  0.09592890410231276  1.0000
  B   B26       1.0  0.2946041103109284  0.1504426821522025  0.9040710960885082  1.0000
  B   B27       1.0  0.8225932084893325  0.9521916879057868  0.10232287999329173  1.0000
  B   B28       1.0  0.1774067917553571  0.047808311964667366  0.8976771196684132  1.0000
  B   B29       1.0  0.005002405763624564  0.9279844145155267  0.09558349694166345  1.0000
  B   B30       1.0  0.9949975944810651  0.07201558535492741  0.9044165027200415  1.0000
  B   B31       1.0  0.0040498826646144966  0.8104873143545163  0.08234066038081347  1.0000
  B   B32       1.0  0.9959501167589124  0.1895126856406621  0.9176593398092932  1.0000
  B   B33       1.0  0.9680906444255769  0.7759358329471443  0.1594049247335053  1.0000
  B   B34       1.0  0.03190935499795016  0.22406416704803414  0.8405950754566015  1.0000
  B   B35       1.0  0.7856234955013  0.7983083728721316  0.1677643232020822  1.0000
  B   B36       1.0  0.2143765049963766  0.20169162712369143  0.8322356769887389  1.0000
  B   B37       1.0  0.7874978337513917  0.9160358111095365  0.18001359624870755  1.0000
  B   B38       1.0  0.21250216674628475  0.08396418888628668  0.8199864039421135  1.0000
  B   B39       1.0  0.967160873152608  0.9650655910029631  0.17941987110603466  1.0000
  B   B40       1.0  0.032839126017932006  0.03493440886684665  0.820580128554956  1.0000
  B   B41       1.0  0.0797938472020594  0.8794329573188723  0.16730734092769114  1.0000
  B   B42       1.0  0.9202061523241114  0.12056704332873805  0.832692659263655  1.0000
  B   B43       1.0  0.9463873829151586  0.8707541406569432  0.2193750351734887  1.0000
  B   B44       1.0  0.053612617582517876  0.12924585933887986  0.7806249650173325  1.0000
  C   C1        1.0  0.8474241127902369  0.8563103954494867  0.05074574558710943  1.0000
  C   C2        1.0  0.15257588663329022  0.1436896045456919  0.9492542546029975  1.0000
  C   C3        1.0  0.46710766783007274  0.28516424677639673  0.11255298908876853  1.0000
  C   C4        1.0  0.5328923313404673  0.7148357530934129  0.887447010572222  1.0000
  C   C5        1.0  0.658376066110051  0.15079315562468432  0.5281100952879828  1.0000
  C   C6        1.0  0.341623933313476  0.8492068443704941  0.471889904902124  1.0000
  C   C7        1.0  0.6695539337283986  0.07050715055627067  0.5525017887311039  1.0000
  C   C8        1.0  0.3304460654421416  0.9294928493135391  0.44749821092988673  1.0000
  C   C9        1.0  0.7214831405759304  0.000995104504715245  0.5136494948242835  1.0000
  C   C10       1.0  0.278516859921746  0.9990048954911078  0.4863505053665377  1.0000
  C   C11       1.0  0.7601823855645635  0.010779576603686208  0.45027900393800624  1.0000
  C   C12       1.0  0.23981761493311302  0.9892204233921368  0.5497209962528148  1.0000
  C   C13       1.0  0.7471622010358113  0.09023219577340817  0.4254938945366074  1.0000
  C   C14       1.0  0.2528377981347287  0.9097678040964016  0.5745061051243832  1.0000
  C   C15       1.0  0.6970428139082293  0.16046245425331018  0.4642187550980666  1.0000
  C   C16       1.0  0.3029571852623109  0.8395375456164995  0.5357812445629241  1.0000
  C   C17       1.0  0.6978867688398588  0.34287397334234887  0.5731638834548851  1.0000
  C   C18       1.0  0.3021132316578176  0.6571260266534741  0.42683611673593586  1.0000
  C   C19       1.0  0.8511532385563948  0.34421297167800735  0.5795955034857616  1.0000
  C   C20       1.0  0.14884676168829486  0.6557870281924469  0.42040449617594333  1.0000
  C   C21       1.0  0.9381642405586085  0.4215946894185264  0.5767332655712308  1.0000
  C   C22       1.0  0.06183575968608092  0.5784053104519278  0.42326673409047405  1.0000
  C   C23       1.0  0.8729737453068691  0.4984662033360089  0.5688411236195847  1.0000
  C   C24       1.0  0.127026253863671  0.5015337965338008  0.43115887604140596  1.0000
  C   C25       1.0  0.7211500839125905  0.497670531922111  0.5637409999301632  1.0000
  C   C26       1.0  0.2788499155109365  0.5023294680730674  0.43625900025994346  1.0000
  C   C27       1.0  0.6326013768433237  0.4200879398350779  0.5656402565594643  1.0000
  C   C28       1.0  0.36739862350400987  0.5799120606878083  0.4343597431034801  1.0000
  C   C29       1.0  0.3985902171490959  0.24220173266485437  0.5386608191183282  1.0000
  C   C30       1.0  0.6014097833485805  0.7577982673309688  0.4613391810724929  1.0000
  C   C31       1.0  0.355897504231226  0.24923782387209872  0.4672229531571893  1.0000
  C   C32       1.0  0.6441024949393143  0.750762175997711  0.5327770465038014  1.0000
  C   C33       1.0  0.2062950560989117  0.2444728650390251  0.4353621583698836  1.0000
  C   C34       1.0  0.7937049443987647  0.7555271349567979  0.5646378418209373  1.0000
  C   C35       1.0  0.09908666303666576  0.2322914499877769  0.47426602093685954  1.0000
  C   C36       1.0  0.9009133372080238  0.7677085498826774  0.5257339787248454  1.0000
  C   C37       1.0  0.1418451926708404  0.224714340014609  0.5450757498983325  1.0000
  C   C38       1.0  0.8581548078268361  0.775285659981214  0.4549242502924886  1.0000
  C   C39       1.0  0.2912107387985973  0.23026632630772834  0.5779033967795693  1.0000
  C   C40       1.0  0.7087892616990791  0.7697336736880948  0.42209660341125177  1.0000
  C   C41       1.0  0.6093334187253118  0.22606681910174303  0.6665299589205862  1.0000
  C   C42       1.0  0.3906665806982152  0.7739331808934354  0.3334700412695206  1.0000
  O   O1        1.0  0.5765714741408448  0.1357638920544826  0.13489518268153367  1.0000
  O   O2        1.0  0.4234285250296953  0.864236107815327  0.8651048169794571  1.0000
  O   O3        1.0  0.21724431157053276  0.35738881791586363  0.09189482183723359  1.0000
  O   O4        1.0  0.7827556886741569  0.6426111819545907  0.9081051778244714  1.0000
  O   O5        1.0  0.23984844918547713  0.16778034556401966  0.12560625852222443  1.0000
  O   O6        1.0  0.760151549985063  0.83221965430579  0.8743937411387662  1.0000
  O   O7        1.0  0.5290428462568116  0.4573892418579455  0.09451815691398156  1.0000
  O   O8        1.0  0.4709571542408647  0.5426107581378776  0.9054818432768394  1.0000
  O   O9        1.0  0.7658482763763852  0.3183004670276159  0.11978293228552972  1.0000
  O   O10       1.0  0.23415172304714188  0.6816995329675626  0.8802170679045772  1.0000
  O   O11       1.0  0.7707940094964074  0.024971715698747125  0.07548201007412328  1.0000
  O   O12       1.0  0.2292059900297635  0.9750282849488633  0.9245179901172229  1.0000
  O   O13       1.0  0.09215299309951426  0.9762290955721548  0.0602905124421764  1.0000
  O   O14       1.0  0.9078470073981623  0.023770904423668384  0.9397094877486447  1.0000
  O   O15       1.0  0.08305248525259061  0.7662630808513243  0.037507781311125185  1.0000
  O   O16       1.0  0.916947515245086  0.2337369191444988  0.9624922188796958  1.0000
  O   O17       1.0  0.7557419015815314  0.6792659973555455  0.03933349736699031  1.0000
  O   O18       1.0  0.24425809784199562  0.320734002639633  0.9606665028231165  1.0000
  O   O19       1.0  0.5564821951941364  0.8366211340301144  0.058562211948945966  1.0000
  O   O20       1.0  0.44351780422939063  0.1633788659650641  0.9414377882411609  1.0000
  O   O21       1.0  0.31757125736682096  0.5535554834475477  0.06500423176531146  1.0000
  O   O22       1.0  0.6824287429805126  0.4464445170753385  0.9349957678976328  1.0000
  O   O23       1.0  0.3463503448714465  0.7141376838371702  0.08298885279167909  1.0000
  O   O24       1.0  0.6536496542990935  0.2858623160326393  0.9170111468693115  1.0000
  O   O25       1.0  0.22281293262536334  0.48118719644310337  0.9334413970707199  1.0000
  O   O26       1.0  0.7771870665451768  0.5188128034267063  0.0665586025902708  1.0000
  O   O27       1.0  0.9160910313692162  0.18585873694592076  0.08607814897570612  1.0000
  O   O28       1.0  0.08390896887547337  0.8141412629245335  0.9139218506859987  1.0000
  O   O29       1.0  0.6010921537746231  0.015432412098843004  0.9466852960477542  1.0000
  O   O30       1.0  0.3989078467230534  0.9845675878969801  0.053314704143066945  1.0000
  O   O31       1.0  0.0002825757894791411  0.4392501751512106  0.13244796964662953  1.0000
  O   O32       1.0  0.9997174247081975  0.5607498248446124  0.8675520305441914  1.0000
  P   P1        1.0  0.5908442905688701  0.2412385532243504  0.5771186058366589  1.0000
  P   P2        1.0  0.40915571003145035  0.7587614474239045  0.4228813943554017  1.0000
  Br  Br1       1.0  0.2937059387325414  0.9027577042181861  0.20336850081106908  1.0000
  Br  Br2       1.0  0.7062940606909855  0.09724229577699224  0.7966314993790378  1.0000
  Br  Br3       1.0  0.5847593687127371  0.4023493011419169  0.382922809692191  1.0000
  Br  Br4       1.0  0.41524063178493936  0.5976506988539062  0.6170771904986302  1.0000
  Br  Br5       1.0  0.054238105436578324  0.6738271861338201  0.18947512327554053  1.0000
  Br  Br6       1.0  0.9457618950610981  0.32617281386200303  0.8105248769152805  1.0000
  Br  Br7       1.0  0.669173788335022  0.9820273538468796  0.23616615629623053  1.0000
  Br  Br8       1.0  0.33082621216265445  0.01797264614894347  0.7638338438945906  1.0000
  Br  Br9       1.0  0.664772865770007  0.7210184857008971  0.2091609000784271  1.0000
  Br  Br10      1.0  0.3352271337561639  0.2789815149467133  0.7908391001129191  1.0000
  Br  Br11      1.0  0.04789285650882902  0.08434678269745997  0.23262166661546452  1.0000
  Br  Br12      1.0  0.9521071437358606  0.9156532171729943  0.7673783330462404  1.0000
  Br  Br13      1.0  0.0075174507290743636  0.8829421959839947  0.32212396167932555  1.0000
  Br  Br14      1.0  0.9924825486944526  0.11705780401118385  0.6778760385107813  1.0000
  Br  Br15      1.0  0.44786754933086415  0.15334324843209401  0.2985178920191973  1.0000
  Br  Br16      1.0  0.5521324509138255  0.8466567514383603  0.7014821076425076  1.0000
  Br  Br17      1.0  0.16952959178129376  0.32780191500195877  0.26454448647713386  1.0000
  Br  Br18      1.0  0.8304704084633958  0.6721980848684955  0.735455513184571  1.0000
  Br  Br19      1.0  0.803655600969836  0.502731503227882  0.26414520225925414  1.0000
  Br  Br20      1.0  0.19634439927485364  0.49726849664257233  0.7358547974024509  1.0000
  Br  Br21      1.0  0.830973847291429  0.26147535974081737  0.2989738428109503  1.0000
  Br  Br22      1.0  0.16902615295326057  0.7385246401296369  0.7010261568507546  1.0000
  Br  Br23      1.0  0.38865166299141124  0.538893563171425  0.24597573973716794  1.0000
  Br  Br24      1.0  0.6113483361791288  0.46110643669838475  0.7540242599238227  1.0000
