data_image0
_chemical_formula_structural       H72C44N4O4I8
_chemical_formula_sum              "H72 C44 N4 O4 I8"
_cell_length_a       7.596910241179252
_cell_length_b       25.249448127493366
_cell_length_c       7.832838816052239
_cell_angle_alpha    90.0
_cell_angle_beta     104.73940922313777
_cell_angle_gamma    90.0

_space_group_name_H-M_alt    "P 1"
_space_group_IT_number       1

loop_
  _space_group_symop_operation_xyz
  'x, y, z'

loop_
  _atom_site_type_symbol
  _atom_site_label
  _atom_site_symmetry_multiplicity
  _atom_site_fract_x
  _atom_site_fract_y
  _atom_site_fract_z
  _atom_site_occupancy
  H   H1        1.0  0.109134084756423  0.14813259922015232  0.15124392330065384  1.0000
  H   H2        1.0  0.8908659143427208  0.6481325990717656  0.8487560768140211  1.0000
  H   H3        1.0  0.47935205341994663  0.5846174528435296  0.4337410270293026  1.0000
  H   H4        1.0  0.5206479469972229  0.08461745259586807  0.5662589730919187  1.0000
  H   H5        1.0  0.8054765717817811  0.13426097168075185  0.15201387328827176  1.0000
  H   H6        1.0  0.19452342863538832  0.6342609715323652  0.8479861268329495  1.0000
  H   H7        1.0  0.5496953095546077  0.1470762660335684  0.2927504351873102  1.0000
  H   H8        1.0  0.450304689544536  0.6470762658851817  0.7072495649273649  1.0000
  H   H9        1.0  0.4313561633121229  0.23776713097594324  0.32168252483324467  1.0000
  H   H10       1.0  0.5686438357870209  0.7377671312236047  0.6783174752814304  1.0000
  H   H11       1.0  0.5742637647309338  0.31545385070524024  0.21631886562241795  1.0000
  H   H12       1.0  0.42573623568623575  0.8154538505568534  0.7836811344988034  1.0000
  H   H13       1.0  0.8354760307566226  0.3031774346649831  0.08435230168215037  1.0000
  H   H14       1.0  0.16452396966054697  0.8031774349126446  0.9156476984390709  1.0000
  H   H15       1.0  0.10036995215365661  0.23992401296896787  0.08662950777127407  1.0000
  H   H16       1.0  0.8996300466057198  0.7399240128205811  0.9133704910232997  1.0000
  H   H17       1.0  0.889261776369009  0.2693652924870957  0.8214905312267506  1.0000
  H   H18       1.0  0.1107382240481604  0.7693652927347572  0.17850946889447067  1.0000
  H   H19       1.0  0.7988385930714711  0.15324635653270938  0.7069333860533433  1.0000
  H   H20       1.0  0.2011614073456984  0.6532463563843226  0.2930666140678781  1.0000
  H   H21       1.0  0.6948345342046337  0.2116373662116352  0.5999386366240574  1.0000
  H   H22       1.0  0.30516546621253576  0.7116373660632485  0.40006136349716387  1.0000
  H   H23       1.0  0.6617737216890641  0.19302251262645068  0.8068380885442573  1.0000
  H   H24       1.0  0.33822627872810546  0.6930225128741122  0.19316191157696402  1.0000
  H   H25       1.0  0.1267946178694456  0.24525403679049684  0.4878737909491265  1.0000
  H   H26       1.0  0.8732053812296983  0.74525403664211  0.5121262091655485  1.0000
  H   H27       1.0  0.987164226123135  0.2904860202474509  0.5716468258786574  1.0000
  H   H28       1.0  0.012835774294034388  0.7904860200990641  0.4283531742425639  1.0000
  H   H29       1.0  0.8956409693893616  0.22853578109363834  0.47413561193781273  1.0000
  H   H30       1.0  0.10435903102780783  0.7285357813412998  0.5258643881834085  1.0000
  H   H31       1.0  0.22940343874955824  0.28786549921008403  0.8601541341639449  1.0000
  H   H32       1.0  0.7705965616676113  0.7878654990616973  0.13984586595727636  1.0000
  H   H33       1.0  0.34684066918770073  0.24423918886706447  0.7457430765909219  1.0000
  H   H34       1.0  0.6531593312294688  0.7442391887186778  0.2542569235302994  1.0000
  H   H35       1.0  0.3058666777358538  0.22377760541417935  0.9509433230915725  1.0000
  H   H36       1.0  0.6941333226813157  0.7237776052657925  0.04905667702964887  1.0000
  H   H37       1.0  0.46178761369734456  0.5986809305166653  0.13425480734236495  1.0000
  H   H38       1.0  0.538212386719825  0.098680930665052  0.8657451927788564  1.0000
  H   H39       1.0  0.6011644649166092  0.5858281688102962  0.8828644560890394  1.0000
  H   H40       1.0  0.3988355355005602  0.08582816856263463  0.11713554403218189  1.0000
  H   H41       1.0  0.6406614348873939  0.49491810303739014  0.7747728652041975  1.0000
  H   H42       1.0  0.3593385655297756  0.9949181032850517  0.22522713491702384  1.0000
  H   H43       1.0  0.5401309684440831  0.41702942998324216  0.9203103760750201  1.0000
  H   H44       1.0  0.4598690319730863  0.9170294302309037  0.07968962404620127  1.0000
  H   H45       1.0  0.40588118082119934  0.4297444405600643  0.17413248834842748  1.0000
  H   H46       1.0  0.59411881959597  0.9297444404116776  0.8258675117727937  1.0000
  H   H47       1.0  0.41469486418357  0.4931084203160381  0.4305499731207228  1.0000
  H   H48       1.0  0.5853051362335995  0.9931084201676514  0.5694500270004985  1.0000
  H   H49       1.0  0.13600777891799198  0.4626759508172965  0.23537515385249388  1.0000
  H   H50       1.0  0.86399222115941  0.9626759506689098  0.7646248449486263  1.0000
  H   H51       1.0  0.04100784299144579  0.580336993743819  0.14824470164527181  1.0000
  H   H52       1.0  0.9589921574257236  0.08033699349615747  0.8517552984759496  1.0000
  H   H53       1.0  0.8892821964831299  0.5264123319799275  0.07907605434415739  1.0000
  H   H54       1.0  0.11071780393403956  0.026412332128314363  0.9209239457770639  1.0000
  H   H55       1.0  0.08796227947586761  0.5315772967483258  0.0034681269395201485  1.0000
  H   H56       1.0  0.9120377209413019  0.031577296896712514  0.9965318731817011  1.0000
  H   H57       1.0  0.2164080563468871  0.4529089721984065  0.5969025091183813  1.0000
  H   H58       1.0  0.7835919440702824  0.9529089720500198  0.40309749100284004  1.0000
  H   H59       1.0  0.09034287160863087  0.4974692063199154  0.6975548355280766  1.0000
  H   H60       1.0  0.9096571288085387  0.9974692065675769  0.3024451645931448  1.0000
  H   H61       1.0  0.2856823479425109  0.521224834441818  0.6324141249145504  1.0000
  H   H62       1.0  0.7143176524746585  0.021224834590204678  0.36758587520667096  1.0000
  H   H63       1.0  0.9253153114913435  0.43297084771116934  0.3885788647785008  1.0000
  H   H64       1.0  0.07468468892582586  0.9329708479588309  0.6114211353427205  1.0000
  H   H65       1.0  0.7932618782351784  0.4850686275659162  0.26016242662573524  1.0000
  H   H66       1.0  0.2067381221819911  0.9850686274175294  0.7398375734954861  1.0000
  H   H67       1.0  0.8137032440173145  0.4815716299462393  0.49185301905289597  1.0000
  H   H68       1.0  0.18629675508182925  0.9815716297978525  0.5081469810617791  1.0000
  H   H69       1.0  0.09807349602490349  0.18341119245918922  0.708201296331172  1.0000
  H   H70       1.0  0.9019265043922661  0.6834111923108024  0.2917987037900492  1.0000
  H   H71       1.0  0.007524441718708091  0.5470810712476087  0.43403752682329144  1.0000
  H   H72       1.0  0.9924755586984614  0.047081071395995495  0.5659624732979299  1.0000
  C   C1        1.0  0.8372918782252479  0.21768739666096068  0.10891703931264336  1.0000
  C   C2        1.0  0.16270812219192168  0.7176873969086222  0.891082960808578  1.0000
  C   C3        1.0  0.7553162942990159  0.17396656187574544  0.16667738152473546  1.0000
  C   C4        1.0  0.24468370611815357  0.673966562123407  0.8333226185964859  1.0000
  C   C5        1.0  0.6103125348312997  0.18116978228205444  0.24408780588804946  1.0000
  C   C6        1.0  0.3896874642678442  0.6811697821336676  0.7559121942266256  1.0000
  C   C7        1.0  0.5444018866052999  0.23196116447482298  0.2613025091130802  1.0000
  C   C8        1.0  0.45559811381186954  0.7319611647224845  0.7386974910081411  1.0000
  C   C9        1.0  0.6250216994622512  0.27573911852825816  0.20245954030697016  1.0000
  C   C10       1.0  0.3749783009549182  0.7757391187759197  0.7975404598142511  1.0000
  C   C11       1.0  0.7716519763816262  0.2686893291981628  0.12811061288572734  1.0000
  C   C12       1.0  0.22834802403554322  0.7686893294458244  0.8718893872354939  1.0000
  C   C13       1.0  0.9932755078721704  0.21153162766295408  0.021618868953834462  1.0000
  C   C14       1.0  0.006724492544998923  0.7115316279106156  0.9783811311673869  1.0000
  C   C15       1.0  0.924072268771275  0.2269910566385509  0.8259754393853469  1.0000
  C   C16       1.0  0.0759277316458944  0.7269910564901643  0.17402456073587455  1.0000
  C   C17       1.0  0.7617501249197928  0.194263153603704  0.7278596393244776  1.0000
  C   C18       1.0  0.23824987549737656  0.6942631538513655  0.2721403607967437  1.0000
  C   C19       1.0  0.015927685478777497  0.24868340441717834  0.552853620187642  1.0000
  C   C20       1.0  0.9840723145986245  0.7486834046648398  0.44714637861347817  1.0000
  C   C21       1.0  0.25216873654077937  0.24641137970953597  0.8301744533454012  1.0000
  C   C22       1.0  0.7478312638763901  0.7464113795611492  0.16982554677582  1.0000
  C   C23       1.0  0.4247753321479755  0.5151414103913434  0.17117213462303782  1.0000
  C   C24       1.0  0.5752246682691939  0.015141410539730239  0.8288278654981835  1.0000
  C   C25       1.0  0.47864854810840757  0.5588800899230152  0.08734062070362276  1.0000
  C   C26       1.0  0.5213514509907362  0.05888009007140192  0.9126593794110522  1.0000
  C   C27       1.0  0.555613449431361  0.5516037483145841  0.9448284763950491  1.0000
  C   C28       1.0  0.44438654966778274  0.05160374846297092  0.05517152371962594  1.0000
  C   C29       1.0  0.5781466693134892  0.5006893868002747  0.8842837468056896  1.0000
  C   C30       1.0  0.42185332978565454  0.0006893865526132605  0.11571625330898554  1.0000
  C   C31       1.0  0.5227657917097719  0.4569100513305082  0.9664814947467948  1.0000
  C   C32       1.0  0.47723420870739763  0.9569100511821215  0.033518505374426556  1.0000
  C   C33       1.0  0.4470493362828412  0.46416674498475446  0.10914761022085506  1.0000
  C   C34       1.0  0.5529506628163026  0.9641667448363678  0.89085238989382  1.0000
  C   C35       1.0  0.3423884239703731  0.5210689023208417  0.32775931517076673  1.0000
  C   C36       1.0  0.6576115764467962  0.021068902469228424  0.6722406849504545  1.0000
  C   C37       1.0  0.14077909387738294  0.5048894655293036  0.270768617627748  1.0000
  C   C38       1.0  0.8592209062000191  0.004889465281642023  0.7292313811733719  1.0000
  C   C39       1.0  0.03255698095552604  0.5379108169580554  0.11801834945676559  1.0000
  C   C40       1.0  0.9674430181436178  0.03791081710644218  0.8819816506579093  1.0000
  C   C41       1.0  0.1707575755714258  0.493949344042085  0.6002219421246696  1.0000
  C   C42       1.0  0.8292424235277179  0.9939493438936983  0.3997780579900054  1.0000
  C   C43       1.0  0.8833716976220971  0.4744968024451388  0.38770158735362487  1.0000
  C   C44       1.0  0.11662830279507239  0.9744968026928004  0.6122984127675964  1.0000
  N   N1        1.0  0.07500394560844957  0.22321457251428317  0.7303497406219787  1.0000
  N   N2        1.0  0.9249960548087199  0.7232145727619448  0.26965025949924265  1.0000
  N   N3        1.0  0.05060617244593349  0.5080454798547506  0.424031410641771  1.0000
  N   N4        1.0  0.949393827971236  0.008045479607089023  0.5759685894794503  1.0000
  O   O1        1.0  0.06615246614561357  0.15953840217259052  0.02673127907354546  1.0000
  O   O2        1.0  0.933847534271556  0.6595384020242039  0.9732687210476759  1.0000
  O   O3        1.0  0.3503665464547469  0.5732737942196358  0.39732587438771955  1.0000
  O   O4        1.0  0.6496334539624226  0.07327379436802252  0.6026741257335018  1.0000
  I   I1        1.0  0.802491740652903  0.6162991884585335  0.5278904135223997  1.0000
  I   I2        1.0  0.19750825976426659  0.11629918821087197  0.47210958659882163  1.0000
  I   I3        1.0  0.9596794866557266  0.38633247430776196  0.8571190171562968  1.0000
  I   I4        1.0  0.04032051376144284  0.8863324741593752  0.14288098296492452  1.0000
  I   I5        1.0  0.6067249038551206  0.36724499613530953  0.6002283089561962  1.0000
  I   I6        1.0  0.3932750949042558  0.8672449959869228  0.3997716898383776  1.0000
  I   I7        1.0  0.24745596164540987  0.35116052696397015  0.3479012006770261  1.0000
  I   I8        1.0  0.7525440387717598  0.8511605268155833  0.6520987994441952  1.0000
