data_image0
_chemical_formula_structural       H20C22N4O6S2Br2
_chemical_formula_sum              "H20 C22 N4 O6 S2 Br2"
_cell_length_a       8.031344802113633
_cell_length_b       8.38788570150349
_cell_length_c       10.163672457571668
_cell_angle_alpha    98.46753542370742
_cell_angle_beta     96.738856223079
_cell_angle_gamma    115.12872755953259

_space_group_name_H-M_alt    "P 1"
_space_group_IT_number       1

loop_
  _space_group_symop_operation_xyz
  'x, y, z'

loop_
  _atom_site_type_symbol
  _atom_site_label
  _atom_site_symmetry_multiplicity
  _atom_site_fract_x
  _atom_site_fract_y
  _atom_site_fract_z
  _atom_site_occupancy
  H   H1        1.0  0.17828336855180169  0.21266320888902313  0.18118385788220367  1.0000
  H   H2        1.0  0.8217166321284369  0.7873367909154797  0.8188161422720915  1.0000
  H   H3        1.0  0.03540261623270745  0.235097057460302  0.3809390620703519  1.0000
  H   H4        1.0  0.9645973831937481  0.7649029423288543  0.6190609380703881  1.0000
  H   H5        1.0  0.08610956544274488  0.7588618606233765  0.4570924770072033  1.0000
  H   H6        1.0  0.9138904339837106  0.24113813916577978  0.5429075231335367  1.0000
  H   H7        1.0  0.21901782049743412  0.7546781242230706  0.25073908405619943  1.0000
  H   H8        1.0  0.7809821792395698  0.2453218765922248  0.7492609150723661  1.0000
  H   H9        1.0  0.5093261176910044  0.11595160752020232  0.11558274975371878  1.0000
  H   H10       1.0  0.4906738827257388  0.8840483919927482  0.8844172493852361  1.0000
  H   H11       1.0  0.7095266949365834  0.19701863085788757  0.039241604060102075  1.0000
  H   H12       1.0  0.29047330448987224  0.8029813689312687  0.960758396080638  1.0000
  H   H13       1.0  0.5701696503151953  0.48053334685665144  0.4223471192326935  1.0000
  H   H14       1.0  0.429830349685304  0.519466654250196  0.5776528809112121  1.0000
  H   H15       1.0  0.47834303680680024  0.7316749981025321  0.43204563904538656  1.0000
  H   H16       1.0  0.5216569626196553  0.2683250016866241  0.5679543610953535  1.0000
  H   H17       1.0  0.557590716956177  0.9228404668556472  0.2589172099510567  1.0000
  H   H18       1.0  0.44240928247027855  0.07715953293350895  0.7410827901896833  1.0000
  H   H19       1.0  0.7008567502944891  0.847778888308653  0.0718804407412773  1.0000
  H   H20       1.0  0.29914324886847105  0.15222111118895093  0.9281195583841225  1.0000
  C   C1        1.0  0.15385209549087378  0.11826734575132078  0.24784137864158262  1.0000
  C   C2        1.0  0.8461479057634087  0.8817326553708733  0.7521586215158782  1.0000
  C   C3        1.0  0.07457975381833765  0.1261803862558168  0.360067729544111  1.0000
  C   C4        1.0  0.925420246861901  0.873819613548686  0.6399322706101842  1.0000
  C   C5        1.0  0.043682351497857666  0.9974052212767316  0.4408090189873687  1.0000
  C   C6        1.0  0.956317649182381  0.0025947785277712645  0.5591909811669264  1.0000
  C   C7        1.0  0.1004324149127629  0.8633393369637831  0.40111319539560675  1.0000
  C   C8        1.0  0.8995675845136927  0.13666066282537326  0.5988868047451332  1.0000
  C   C9        1.0  0.17827077416470785  0.8583137503573823  0.28754195268031657  1.0000
  C   C10       1.0  0.8217292265155309  0.1416862494471204  0.7124580474739786  1.0000
  C   C11       1.0  0.6835712773202942  0.5226618514725733  0.24367559752442874  1.0000
  C   C12       1.0  0.3164287239339882  0.4773381496496208  0.7563244026330321  1.0000
  C   C13       1.0  0.5950196052601118  0.5614528667008081  0.3458566997066529  1.0000
  C   C14       1.0  0.40498039474038755  0.43854713440603943  0.6541433004372529  1.0000
  C   C15       1.0  0.5453745714385265  0.7021317538860398  0.3507885234188111  1.0000
  C   C16       1.0  0.4546254292417121  0.2978682459184629  0.6492114767354841  1.0000
  C   C17       1.0  0.5868762476244671  0.806992174144836  0.2535573470517231  1.0000
  C   C18       1.0  0.41312375362981535  0.19300782697735794  0.7464426531057378  1.0000
  C   C19       1.0  0.6696742938407461  0.7668444929676598  0.14852780084948394  1.0000
  C   C20       1.0  0.3303257055857095  0.2331555068214966  0.8514721992912562  1.0000
  C   C21       1.0  0.7158112951453788  0.6238094416960542  0.14274806285237807  1.0000
  C   C22       1.0  0.2841887052713645  0.37619055781689625  0.8572519362865769  1.0000
  N   N1        1.0  0.20403561266799233  0.9843000534517715  0.21116791970595813  1.0000
  N   N2        1.0  0.7959643867584633  0.015699946337384654  0.7888320804347819  1.0000
  N   N3        1.0  0.6537914118278151  0.19054950574517535  0.12527990122026259  1.0000
  N   N4        1.0  0.3462085873351452  0.8094504937524288  0.8747200979051373  1.0000
  O   O1        1.0  0.27397403923244035  0.9760546914696064  0.10122028393382733  1.0000
  O   O2        1.0  0.7260259601940152  0.02394530831954979  0.8987797162069127  1.0000
  O   O3        1.0  0.6948078653801469  0.28238507161181636  0.37238121554127124  1.0000
  O   O4        1.0  0.30519213404630857  0.7176149281773399  0.6276187845994687  1.0000
  O   O5        1.0  0.9594135504731144  0.43102537720259954  0.2561767360159277  1.0000
  O   O6        1.0  0.04058644952738488  0.5689746239042479  0.7438232641279781  1.0000
  S   S1        1.0  0.7598703618952981  0.352300190268389  0.2560212221160121  1.0000
  S   S2        1.0  0.24012963878494056  0.6476998095361137  0.743978778038283  1.0000
  Br  Br1       1.0  0.8272866758505729  0.5762224754833649  0.9963430198217581  1.0000
  Br  Br2       1.0  0.17271332357588273  0.42377752430579135  0.0036569803189818698  1.0000
