data_image0
_chemical_formula_structural       H52C48N8O16S4
_chemical_formula_sum              "H52 C48 N8 O16 S4"
_cell_length_a       8.746697845392541
_cell_length_b       5.197975404618534
_cell_length_c       27.66405157682036
_cell_angle_alpha    90.0
_cell_angle_beta     102.59184478440233
_cell_angle_gamma    90.0

_space_group_name_H-M_alt    "P 1"
_space_group_IT_number       1

loop_
  _space_group_symop_operation_xyz
  'x, y, z'

loop_
  _atom_site_type_symbol
  _atom_site_label
  _atom_site_symmetry_multiplicity
  _atom_site_fract_x
  _atom_site_fract_y
  _atom_site_fract_z
  _atom_site_occupancy
  H   H1        1.0  0.8634347388427278  0.9103748616808389  0.9720495772338891  1.0000
  H   H2        1.0  0.1365652606330019  0.41037486212510166  0.5279504228928206  1.0000
  H   H3        1.0  0.13656526088018722  0.08962513743063565  0.027950422779973744  1.0000
  H   H4        1.0  0.863434739089913  0.589625136986373  0.4720495771210423  1.0000
  H   H5        1.0  0.7782215304448211  0.554547602791426  0.01901738589616279  1.0000
  H   H6        1.0  0.22177847069359782  0.05454760323568866  0.4809826144478309  1.0000
  H   H7        1.0  0.2217784704495545  0.4454523963200486  0.9809826141994157  1.0000
  H   H8        1.0  0.7782215302007777  0.9454523958757858  0.5190173856477475  1.0000
  H   H9        1.0  0.2997676271594911  0.728547408407354  0.9430371004140046  1.0000
  H   H10       1.0  0.7002323723193805  0.2285474069277908  0.5569628993514429  1.0000
  H   H11       1.0  0.7002323725665659  0.27145259262794647  0.05696289923859614  1.0000
  H   H12       1.0  0.2997676274035344  0.7714525921836838  0.4430371006624199  1.0000
  H   H13       1.0  0.4056304518397018  0.08312643411434341  0.9014162357412212  1.0000
  H   H14       1.0  0.5943695488074886  0.5831264336700808  0.598583764467204  1.0000
  H   H15       1.0  0.5943695478832133  0.9168735649971312  0.09858376427264162  1.0000
  H   H16       1.0  0.4056304520868871  0.41687356544139387  0.40141623562837436  1.0000
  H   H17       1.0  0.8673043070633877  0.33996027346144847  0.921866951292791  1.0000
  H   H18       1.0  0.13269569358694458  0.8399602749410118  0.5781330485543723  1.0000
  H   H19       1.0  0.13269569266266917  0.660039725650026  0.07813304835980993  1.0000
  H   H20       1.0  0.867304307307431  0.1600397260942888  0.42186695154120607  1.0000
  H   H21       1.0  0.9802630364066239  0.5932117872778373  0.9067605347964857  1.0000
  H   H22       1.0  0.019736963069105617  0.09321178579827412  0.5932394653302239  1.0000
  H   H23       1.0  0.019736963316290934  0.4067882137574632  0.09323946521737715  1.0000
  H   H24       1.0  0.9802630366538094  0.9067882133132005  0.4067605346836389  1.0000
  H   H25       1.0  0.7804534261727271  0.8792133079235664  0.8367003501465133  1.0000
  H   H26       1.0  0.21954657330300265  0.37921330836782924  0.6632996499801963  1.0000
  H   H27       1.0  0.21954657355018795  0.12078669118790802  0.16329964986734943  1.0000
  H   H28       1.0  0.7804534264199124  0.6207866907436453  0.3367003500336666  1.0000
  H   H29       1.0  0.5963561380074395  0.8835210139546694  0.7551378834434603  1.0000
  H   H30       1.0  0.4036438626428928  0.3835210124751062  0.7448621164037028  1.0000
  H   H31       1.0  0.4036438628869361  0.11647898708063102  0.24486211665211807  1.0000
  H   H32       1.0  0.5963561370831642  0.6164789866363684  0.2551378832488979  1.0000
  H   H33       1.0  0.8214311580941941  0.5648896120960939  0.7147350537891916  1.0000
  H   H34       1.0  0.17856884138153548  0.0648896125403566  0.785264946337518  1.0000
  H   H35       1.0  0.1785688416287208  0.4351103889392066  0.28526494622467113  1.0000
  H   H36       1.0  0.8214311583413796  0.9351103884949439  0.21473505367634488  1.0000
  H   H37       1.0  0.009963250204234483  0.5555349833772286  0.7963450591238861  1.0000
  H   H38       1.0  0.990036749274637  0.05553498189766535  0.7036549406415615  1.0000
  H   H39       1.0  0.9900367495218226  0.44446501765807195  0.20365494052871463  1.0000
  H   H40       1.0  0.0099632504482778  0.9444650172138093  0.2963450593723014  1.0000
  H   H41       1.0  0.5625022332590487  0.849611138228173  0.6699852188861475  1.0000
  H   H42       1.0  0.43749776621668085  0.34961113867243565  0.8300147812405622  1.0000
  H   H43       1.0  0.43749776646386623  0.1503888608833016  0.3300147811277154  1.0000
  H   H44       1.0  0.5625022335062341  0.6503888604390389  0.1699852187733006  1.0000
  H   H45       1.0  0.4418880899319825  0.06921459452854088  0.6295011373821738  1.0000
  H   H46       1.0  0.5581119095437472  0.5692145960081041  0.8704988627445359  1.0000
  H   H47       1.0  0.5581119097909324  0.9307854045829337  0.37049886263168913  1.0000
  H   H48       1.0  0.4418880901791678  0.4307854050271964  0.12950113726932694  1.0000
  H   H49       1.0  0.40854846464014755  0.01698888954371278  0.6904903696076484  1.0000
  H   H50       1.0  0.5914515360070428  0.5169888890994501  0.8095096306007769  1.0000
  H   H51       1.0  0.5914515362542281  0.9830111095677618  0.30950963048793  1.0000
  H   H52       1.0  0.40854846371587217  0.4830111100120245  0.19049036941308606  1.0000
  C   C1        1.0  0.7408571734037234  0.8594067905805789  0.968030695238192  1.0000
  C   C2        1.0  0.25914282724660903  0.3594067910248417  0.5319693046089712  1.0000
  C   C3        1.0  0.2591428274906523  0.1405932104547216  0.03196930485738645  1.0000
  C   C4        1.0  0.7408571724794479  0.6405932100104589  0.46803069504362954  1.0000
  C   C5        1.0  0.6889788269113925  0.6606446804170698  0.9931595048885878  1.0000
  C   C6        1.0  0.3110211725674791  0.16064467893750653  0.5068404948768598  1.0000
  C   C7        1.0  0.3110211728115225  0.3393553206182307  0.006840495125275016  1.0000
  C   C8        1.0  0.6889788271585778  0.8393553201739681  0.49315950477574105  1.0000
  C   C9        1.0  0.5283606074079322  0.6037097630765521  0.9863293250533587  1.0000
  C   C10       1.0  0.4716393920677974  0.10370976352081486  0.513670675073351  1.0000
  C   C11       1.0  0.4716393923149828  0.3962902360349224  0.01367067496050417  1.0000
  C   C12       1.0  0.5283606076551176  0.8962902375144857  0.48632932494051184  1.0000
  C   C13       1.0  0.4258410503993284  0.7581114036243105  0.9519374208709832  1.0000
  C   C14       1.0  0.5741589490795432  0.2581114040685733  0.5480625788944643  1.0000
  C   C15       1.0  0.5741589493235866  0.24188859741098998  0.048062579142879584  1.0000
  C   C16       1.0  0.42584105064337174  0.7418885969667273  0.4519374211193985  1.0000
  C   C17       1.0  0.4809108402539973  0.9569943146672241  0.9275925461786596  1.0000
  C   C18       1.0  0.5190891592217323  0.4569943151114868  0.5724074539480501  1.0000
  C   C19       1.0  0.5190891594689176  0.04300568444425051  0.07240745383520329  1.0000
  C   C20       1.0  0.48091084050118266  0.5430056839999878  0.42759254606581276  1.0000
  C   C21       1.0  0.9067450019945549  0.21469261262922387  0.8214437465393343  1.0000
  C   C22       1.0  0.09325499865577742  0.7146926121849612  0.6785562533078289  1.0000
  C   C23       1.0  0.09325499889982074  0.7853073884060766  0.17855625355624405  1.0000
  C   C24       1.0  0.9067450010702796  0.2853073869265134  0.321443746344772  1.0000
  C   C25       1.0  0.7897921374259864  0.02820005648155955  0.8098894911656216  1.0000
  C   C26       1.0  0.21020786322434595  0.5282000560372968  0.6901105086815416  1.0000
  C   C27       1.0  0.21020786230007057  0.9717999445537411  0.19011050848697916  1.0000
  C   C28       1.0  0.7897921376700298  0.4717999449980037  0.3098894914140369  1.0000
  C   C29       1.0  0.6857905757054454  0.03150287126301193  0.7639559488494261  1.0000
  C   C30       1.0  0.31420942494174486  0.5315028708187491  0.7360440513589992  1.0000
  C   C31       1.0  0.31420942401746954  0.9684971297722886  0.23604405116443683  1.0000
  C   C32       1.0  0.6857905759526307  0.46849713021655126  0.2639559487365792  1.0000
  C   C33       1.0  0.6980111172889872  0.22491449054592005  0.7295524377908479  1.0000
  C   C34       1.0  0.30198888218674236  0.7249144901016573  0.7704475623358618  1.0000
  C   C35       1.0  0.3019888824339277  0.7750855104893806  0.27044756222301497  1.0000
  C   C36       1.0  0.6980111175361725  0.27508550900981726  0.22955243767800104  1.0000
  C   C37       1.0  0.8140251226512757  0.4159984516430565  0.7417987955512699  1.0000
  C   C38       1.0  0.18597487799591467  0.9159984531226197  0.7582012046571553  1.0000
  C   C39       1.0  0.18597487707163926  0.584001547468418  0.2582012044625929  1.0000
  C   C40       1.0  0.814025122898461  0.08400154791268077  0.2417987954384231  1.0000
  C   C41       1.0  0.9183614594564007  0.41027754154148544  0.7873960083977113  1.0000
  C   C42       1.0  0.08163854001932888  0.9102775410972228  0.7126039917289984  1.0000
  C   C43       1.0  0.0816385402665142  0.5897224575699891  0.21260399161615157  1.0000
  C   C44       1.0  0.9183614597035861  0.08972245801425183  0.28739600828486445  1.0000
  C   C45       1.0  0.49771003546660575  0.031459167708778456  0.6680478678065492  1.0000
  C   C46       1.0  0.5022899640091238  0.5314591672645157  0.8319521323201603  1.0000
  C   C47       1.0  0.5022899642563092  0.9685408314026961  0.33195213220731357  1.0000
  C   C48       1.0  0.4977100357137912  0.4685408318469588  0.16804786769370247  1.0000
  N   N1        1.0  0.6374904247749873  0.009216059382935002  0.9356476081130854  1.0000
  N   N2        1.0  0.3625095747007423  0.5092160589386723  0.5643523920136241  1.0000
  N   N3        1.0  0.3625095749479276  0.9907839416523654  0.06435239190077731  1.0000
  N   N4        1.0  0.6374904250221726  0.49078394209662823  0.43564760800023866  1.0000
  N   N5        1.0  0.9768322326013381  0.4037343959217927  0.9171815485664038  1.0000
  N   N6        1.0  0.023167768045852022  0.90373439547753  0.5828184516420215  1.0000
  N   N7        1.0  0.02316776712157664  0.5962656051135077  0.08281845144745913  1.0000
  N   N8        1.0  0.9768322328485236  0.09626560555777046  0.41718154845355687  1.0000
  O   O1        1.0  0.6856709089351105  0.2007280428978042  0.912434246796221  1.0000
  O   O2        1.0  0.3143290917152219  0.7007280424535414  0.5875657530509422  1.0000
  O   O3        1.0  0.3143290907878045  0.7992719581374963  0.08756575321764187  1.0000
  O   O4        1.0  0.6856709091822958  0.2992719566579331  0.4124342466833742  1.0000
  O   O5        1.0  0.18805601183044512  0.3100993222414627  0.8725732907290035  1.0000
  O   O6        1.0  0.8119439888167452  0.8100993217972  0.6274267094794218  1.0000
  O   O7        1.0  0.8119439878924698  0.6899006768700119  0.1274267092848594  1.0000
  O   O8        1.0  0.18805601207763042  0.18990067731427457  0.3725732906161566  1.0000
  O   O9        1.0  0.03486345335008079  0.9526785497291931  0.9003026515580093  1.0000
  O   O10       1.0  0.9651365473002513  0.45267855017345576  0.5996973482891538  1.0000
  O   O11       1.0  0.9651365475442948  0.04732144938228148  0.09969734853756916  1.0000
  O   O12       1.0  0.034863453594124114  0.5473214489380187  0.4003026518064245  1.0000
  O   O13       1.0  0.6028256451629747  0.24254767132599078  0.6839006034414649  1.0000
  O   O14       1.0  0.39717435548421565  0.742547670881728  0.8160993967669604  1.0000
  O   O15       1.0  0.39717435455994027  0.7574523277854838  0.31609939657239805  1.0000
  O   O16       1.0  0.60282564541016  0.2574523282297465  0.18390060332861796  1.0000
  S   S1        1.0  0.03996492709789571  0.2089402383541489  0.8795486442756695  1.0000
  S   S2        1.0  0.960035072380976  0.7089402379098863  0.620451355489778  1.0000
  S   S3        1.0  0.9600350726250193  0.7910597626811516  0.1204513557381933  1.0000
  S   S4        1.0  0.03996492734193902  0.2910597631254143  0.3795486445240848  1.0000
