data_image0
_chemical_formula_structural       H44C48N4O8S4
_chemical_formula_sum              "H44 C48 N4 O8 S4"
_cell_length_a       5.1775283345551415
_cell_length_b       9.917603173408436
_cell_length_c       19.98918455238177
_cell_angle_alpha    90.0
_cell_angle_beta     92.36878280107554
_cell_angle_gamma    90.0

_space_group_name_H-M_alt    "P 1"
_space_group_IT_number       1

loop_
  _space_group_symop_operation_xyz
  'x, y, z'

loop_
  _atom_site_type_symbol
  _atom_site_label
  _atom_site_symmetry_multiplicity
  _atom_site_fract_x
  _atom_site_fract_y
  _atom_site_fract_z
  _atom_site_occupancy
  H   H1        1.0  0.83052267302284  0.2691610909738166  0.49402230533104896  1.0000
  H   H2        1.0  0.1694773277669174  0.769161091306133  0.0059776945587411085  1.0000
  H   H3        1.0  0.1694773268045627  0.7308389086825081  0.5059776943179115  1.0000
  H   H4        1.0  0.8305226720773136  0.2308389093584998  0.9940223055906512  1.0000
  H   H5        1.0  0.08896873139146036  0.14997683351438365  0.4022835081184538  1.0000
  H   H6        1.0  0.911031269398297  0.6499768328383919  0.09771649177133634  1.0000
  H   H7        1.0  0.9110312684359424  0.8500231671502493  0.5977164915305068  1.0000
  H   H8        1.0  0.08896873044593404  0.3500231668179328  0.9022835083780559  1.0000
  H   H9        1.0  0.6793293987998767  0.5063638252299715  0.34027514684642396  1.0000
  H   H10       1.0  0.3206706019898805  0.006363825905963256  0.15972485304336612  1.0000
  H   H11       1.0  0.32067060104435424  0.49363617442635316  0.6597248533029684  1.0000
  H   H12       1.0  0.6793293978375221  0.9936361747586695  0.8402751466055944  1.0000
  H   H13       1.0  0.9714751382615147  0.4473122852802513  0.2501613387589866  1.0000
  H   H14       1.0  0.02852486252824273  0.9473122856125678  0.24983866113080352  1.0000
  H   H15       1.0  0.028524861582716422  0.5526877143760733  0.7498386613904057  1.0000
  H   H16       1.0  0.9714751392489904  0.05268771505206508  0.7501613390349274  1.0000
  H   H17       1.0  0.6819479861010979  0.05953603201055233  0.23547701706067956  1.0000
  H   H18       1.0  0.31805201470548783  0.5595360323428687  0.26452298332954227  1.0000
  H   H19       1.0  0.3180520137431331  0.9404639676457723  0.7645229830887127  1.0000
  H   H20       1.0  0.6819479851387432  0.44046396731345594  0.7354770168198501  1.0000
  H   H21       1.0  0.36085818905392636  0.10218419332578636  0.3211886410617281  1.0000
  H   H22       1.0  0.6391418117358311  0.6021841926497946  0.17881135882806204  1.0000
  H   H23       1.0  0.6391418107734763  0.8978158073388465  0.6788113585872324  1.0000
  H   H24       1.0  0.36085818810840004  0.39781580700653  0.8211886413213303  1.0000
  H   H25       1.0  0.041191255731233244  0.24121776483398305  0.18482661536950787  1.0000
  H   H26       1.0  0.9588087450753526  0.7412177651662994  0.31517338502071396  1.0000
  H   H27       1.0  0.9588087441129979  0.7587822348223416  0.8151733847798845  1.0000
  H   H28       1.0  0.04119125476887855  0.2587822344900252  0.6848266151286784  1.0000
  H   H29       1.0  0.39901671371829583  0.5859359089483387  0.05734988502728522  1.0000
  H   H30       1.0  0.6009832870714615  0.0859359086160223  0.44265011486250494  1.0000
  H   H31       1.0  0.6009832861091069  0.41406409070798594  0.9426501146216755  1.0000
  H   H32       1.0  0.39901671277276957  0.9140640910403023  0.5573498852868874  1.0000
  H   H33       1.0  0.20379077225240771  0.49887458123610506  0.9975781677672699  1.0000
  H   H34       1.0  0.7962092285792992  0.9988745815684215  0.5024218326580632  1.0000
  H   H35       1.0  0.7962092275918234  0.5011254184202196  0.002421832382122267  1.0000
  H   H36       1.0  0.20379077126493186  0.001125418087903197  0.4975781674913292  1.0000
  H   H37       1.0  0.4110301615427908  0.2782515998824338  0.038335262671710314  1.0000
  H   H38       1.0  0.5889698392469666  0.7782516002147503  0.46166473721807977  1.0000
  H   H39       1.0  0.5889698382846119  0.7217483997738908  0.9616647369772502  1.0000
  H   H40       1.0  0.4110301605972645  0.22174839944157443  0.5383352629313125  1.0000
  H   H41       1.0  0.5925631212142188  0.3696791508890321  0.09933384704613749  1.0000
  H   H42       1.0  0.40743687957553854  0.8696791512213485  0.40066615284365265  1.0000
  H   H43       1.0  0.4074368805630143  0.6303208487672927  0.9006661531195935  1.0000
  H   H44       1.0  0.5925631202518642  0.13032084944328437  0.5993338468053079  1.0000
  C   C1        1.0  0.050221995093118615  0.45276606469189634  0.4767350676417807  1.0000
  C   C2        1.0  0.9497780056966388  0.9527660640159046  0.023264932248009428  1.0000
  C   C3        1.0  0.9497780066841145  0.5472339359727365  0.5232649325239502  1.0000
  C   C4        1.0  0.05022199413076391  0.04723393564042008  0.9767350674009512  1.0000
  C   C5        1.0  0.980047339491278  0.3186945207159111  0.4662608965226773  1.0000
  C   C6        1.0  0.01995265936547726  0.8186945210482276  0.03373910335077419  1.0000
  C   C7        1.0  0.01995266033612464  0.6813054789404136  0.5337391031262833  1.0000
  C   C8        1.0  0.9800473404787536  0.18130547961640534  0.966260896798618  1.0000
  C   C9        1.0  0.12240556803419703  0.254409503574931  0.4171419317002819  1.0000
  C   C10       1.0  0.8775944327555604  0.7544095039072474  0.08285806818950824  1.0000
  C   C11       1.0  0.8775944318100342  0.7455904960813937  0.5828580684491105  1.0000
  C   C12       1.0  0.12240556707184233  0.2455904957490773  0.9171419314594522  1.0000
  C   C13       1.0  0.3049601464393542  0.3387427356448077  0.3897688844143939  1.0000
  C   C14       1.0  0.6950398524174011  0.8387427359771242  0.11023111545905762  1.0000
  C   C15       1.0  0.6950398533880484  0.6612572640115169  0.6102311152345669  1.0000
  C   C16       1.0  0.3049601474268299  0.16125726367920054  0.8897688846903347  1.0000
  C   C17       1.0  0.48784405280218146  0.3091320227673864  0.3388866571655292  1.0000
  C   C18       1.0  0.5121559479875759  0.8091320230997028  0.16111334272426098  1.0000
  C   C19       1.0  0.5121559470420496  0.6908679768889383  0.6611133429838632  1.0000
  C   C20       1.0  0.48784405183982676  0.19086797655662188  0.8388866569246997  1.0000
  C   C21       1.0  0.6674885296944792  0.4059589600030664  0.31807197858129327  1.0000
  C   C22       1.0  0.33251147109527807  0.9059589593270748  0.18192802130849686  1.0000
  C   C23       1.0  0.3325114701497518  0.5940410406615664  0.6819280215680992  1.0000
  C   C24       1.0  0.6674885287321246  0.09404104032924995  0.8180719783404637  1.0000
  C   C25       1.0  0.8362543757767971  0.3732864186304883  0.26866657416995976  1.0000
  C   C26       1.0  0.16374562307995819  0.8732864179544965  0.2313334257034918  1.0000
  C   C27       1.0  0.16374562406743395  0.6267135820341445  0.7313334259794326  1.0000
  C   C28       1.0  0.8362543767474444  0.12671358170182817  0.7686665739454688  1.0000
  C   C29       1.0  0.6747020102573512  0.15763285772430424  0.25985014611745816  1.0000
  C   C30       1.0  0.32529798859940406  0.6576328580566206  0.2401498537559934  1.0000
  C   C31       1.0  0.3252979895700514  0.8423671419320204  0.7401498535315024  1.0000
  C   C32       1.0  0.674702011244827  0.3423671426080122  0.7598501463933989  1.0000
  C   C33       1.0  0.495002748694453  0.18159625854248015  0.30800284042540754  1.0000
  C   C34       1.0  0.5049972520953043  0.6815962588747966  0.1919971594643826  1.0000
  C   C35       1.0  0.5049972511497781  0.8184037411138445  0.6919971597239848  1.0000
  C   C36       1.0  0.49500274774892666  0.31840374178983627  0.8080028406850097  1.0000
  C   C37       1.0  0.3924902505438512  0.4961701515940808  0.02493911346292237  1.0000
  C   C38       1.0  0.607509750245906  0.9961701519263971  0.4750608864268677  1.0000
  C   C39       1.0  0.6075097493003798  0.503829848062244  0.9750608866864698  1.0000
  C   C40       1.0  0.3924902495814966  0.0038298487382356326  0.5249391132220929  1.0000
  C   C41       1.0  0.4097902324789621  0.3705330305867705  0.06893285895391137  1.0000
  C   C42       1.0  0.5902097683107953  0.8705330299107787  0.4310671409358788  1.0000
  C   C43       1.0  0.5902097673484406  0.6294669700778623  0.9310671406950491  1.0000
  C   C44       1.0  0.4097902334664379  0.1294669697455459  0.5689328592298522  1.0000
  C   C45       1.0  0.19160067300189948  0.3574681360014118  0.11647510226765478  1.0000
  C   C46       1.0  0.8083993277878578  0.8574681363337282  0.3835248976221354  1.0000
  C   C47       1.0  0.8083993268423316  0.6425318636549129  0.8835248978817376  1.0000
  C   C48       1.0  0.19160067203954478  0.14253186332259646  0.6164751020268252  1.0000
  N   N1        1.0  0.8427662527663586  0.25096280789631653  0.2397310857771849  1.0000
  N   N2        1.0  0.15723374609039661  0.7509628082286329  0.2602689140962666  1.0000
  N   N3        1.0  0.15723374707787238  0.7490371917600083  0.7602689143722074  1.0000
  N   N4        1.0  0.8427662537538345  0.2490371914276918  0.7397310860531257  1.0000
  O   O1        1.0  0.19103827398728404  0.24103733817557452  0.1495569120074118  1.0000
  O   O2        1.0  0.8089617248862996  0.7410373385078909  0.3504430883664714  1.0000
  O   O3        1.0  0.808961725856947  0.7589626614807502  0.8504430881419806  1.0000
  O   O4        1.0  0.19103827495793144  0.2589626621567419  0.6495569117829209  1.0000
  O   O5        1.0  0.029501016005324815  0.44712215668092853  0.12469056836481034  1.0000
  O   O6        1.0  0.9704989847844326  0.947122157013245  0.37530943152497975  1.0000
  O   O7        1.0  0.9704989857719083  0.5528778429753962  0.8753094318009206  1.0000
  O   O8        1.0  0.029501015059798512  0.052877843651387924  0.6246905686244125  1.0000
  S   S1        1.0  0.2936002575860979  0.49868613046152566  0.4247320297929169  1.0000
  S   S2        1.0  0.7063997412706573  0.9986861307938422  0.07526797008053462  1.0000
  S   S3        1.0  0.7063997422413048  0.501313869194799  0.5752679698560437  1.0000
  S   S4        1.0  0.2936002585735737  0.0013138698707907427  0.9247320300688578  1.0000
