data_image0
_chemical_formula_structural       H44C68N4O8F12S4
_chemical_formula_sum              "H44 C68 N4 O8 F12 S4"
_cell_length_a       22.540182211643987
_cell_length_b       5.385502658841831
_cell_length_c       12.643666809051847
_cell_angle_alpha    90.0
_cell_angle_beta     103.28192536347319
_cell_angle_gamma    90.0

_space_group_name_H-M_alt    "P 1"
_space_group_IT_number       1

loop_
  _space_group_symop_operation_xyz
  'x, y, z'

loop_
  _atom_site_type_symbol
  _atom_site_label
  _atom_site_symmetry_multiplicity
  _atom_site_fract_x
  _atom_site_fract_y
  _atom_site_fract_z
  _atom_site_occupancy
  H   H1        1.0  0.9702806265181038  0.6082759655910162  0.4030004265828475  1.0000
  H   H2        1.0  0.0297193734960514  0.1082759654834897  0.0969995735315833  1.0000
  H   H3        1.0  0.029719373207303706  0.3917240346240369  0.59699957350495  1.0000
  H   H4        1.0  0.9702806266851939  0.8917240347315634  0.9030004267383599  1.0000
  H   H5        1.0  0.041525969762454346  0.568593428316778  0.2676290845155952  1.0000
  H   H6        1.0  0.9584740302517009  0.06859342820925146  0.2323709155988356  1.0000
  H   H7        1.0  0.9584740304187911  0.4314065718982751  0.732370915754348  1.0000
  H   H8        1.0  0.04152596947370665  0.9314065720058016  0.7676290844889618  1.0000
  H   H9        1.0  0.09853730377135626  0.6525433172389808  0.15555637546275006  1.0000
  H   H10       1.0  0.901462696242799  0.15254331713145433  0.3444436246516808  1.0000
  H   H11       1.0  0.9014626964098892  0.3474566829760722  0.8444436248071931  1.0000
  H   H12       1.0  0.09853730393844636  0.8474566830835988  0.6555563756182624  1.0000
  H   H13       1.0  0.17111932793523385  0.7508200972403896  0.03814379151409249  1.0000
  H   H14       1.0  0.8288806720789214  0.25082009713286296  0.4618562086003383  1.0000
  H   H15       1.0  0.8288806722460115  0.24917990297466353  0.9618562087558507  1.0000
  H   H16       1.0  0.17111932764648613  0.7491799030821901  0.5381437914874592  1.0000
  H   H17       1.0  0.23989144751840044  0.1136732295535906  0.08407389923881398  1.0000
  H   H18       1.0  0.7601085524957547  0.6136732296611171  0.41592610087561677  1.0000
  H   H19       1.0  0.7601085526628449  0.8863267706614625  0.9159261010311293  1.0000
  H   H20       1.0  0.2398914476854906  0.38632677055393594  0.5840738993943264  1.0000
  H   H21       1.0  0.17174817587394703  0.2919750596387518  0.3514406608039478  1.0000
  H   H22       1.0  0.8282518241402083  0.7919750597462784  0.14855933931048307  1.0000
  H   H23       1.0  0.8282518243072984  0.7080249405763013  0.6485593394659954  1.0000
  H   H24       1.0  0.17174817604103715  0.20802494046877473  0.8514406609594601  1.0000
  H   H25       1.0  0.252883596139487  0.4239870843348629  0.256729742315751  1.0000
  H   H26       1.0  0.7471164034188303  0.9239870844423894  0.24327025761653412  1.0000
  H   H27       1.0  0.7471164035859205  0.5760129158801901  0.7432702577720465  1.0000
  H   H28       1.0  0.2528835963039542  0.07601291577266361  0.7567297416792923  1.0000
  H   H29       1.0  0.36767610037243115  0.8674319085759458  0.2928859048988449  1.0000
  H   H30       1.0  0.6323238996417241  0.3674319084684192  0.2071140952155859  1.0000
  H   H31       1.0  0.6323238993529765  0.13256809163910732  0.7071140951889526  1.0000
  H   H32       1.0  0.36767610053689836  0.632568089889797  0.7928859042623864  1.0000
  H   H33       1.0  0.42950254173496816  0.39544681618595545  0.5519980118184452  1.0000
  H   H34       1.0  0.5704974581575295  0.8954468162934821  0.9480019884248647  1.0000
  H   H35       1.0  0.5704974584462772  0.6045531840290976  0.4480019884514981  1.0000
  H   H36       1.0  0.4295025415678781  0.10455318392157108  0.05199801166293275  1.0000
  H   H37       1.0  0.35076671049231267  0.24157423223327937  0.644494378141156  1.0000
  H   H38       1.0  0.649233289400185  0.7415742323408059  0.855505622102154  1.0000
  H   H39       1.0  0.6492332892330949  0.7584257679817737  0.3555056219466416  1.0000
  H   H40       1.0  0.3507667107810604  0.2584257678742472  0.14449437816778923  1.0000
  H   H41       1.0  0.2798584856216612  0.9041732385008581  0.5602123109127539  1.0000
  H   H42       1.0  0.7201415142682135  0.4041732383933315  0.939787688538585  1.0000
  H   H43       1.0  0.7201415145569612  0.09582676171419505  0.4397876885652183  1.0000
  H   H44       1.0  0.27985848545457115  0.5958267618217216  0.06021231075724154  1.0000
  C   C1        1.0  0.015406862768984847  0.9583596605465129  0.45945526867304187  1.0000
  C   C2        1.0  0.9845931372451704  0.4583596604389864  0.04054473144138887  1.0000
  C   C3        1.0  0.9845931374122604  0.041640337811703274  0.5405447315969013  1.0000
  C   C4        1.0  0.015406862936074966  0.5416403379192298  0.9594552688285544  1.0000
  C   C5        1.0  0.005013667801073485  0.7442889427264737  0.39653178321580995  1.0000
  C   C6        1.0  0.9949863322104587  0.24428894261894726  0.10346821610664987  1.0000
  C   C7        1.0  0.9949863323775489  0.2557110574885793  0.6034682162621623  1.0000
  C   C8        1.0  0.005013667512325786  0.7557110575961058  0.8965317831891766  1.0000
  C   C9        1.0  0.04362974491688549  0.7232105927207173  0.3237114214915687  1.0000
  C   C10       1.0  0.9563702550972697  0.22321059261319082  0.17628857862286212  1.0000
  C   C11       1.0  0.9563702552643599  0.27678940749433567  0.6762885787783744  1.0000
  C   C12       1.0  0.04362974462813779  0.7767894076018622  0.8237114214649354  1.0000
  C   C13       1.0  0.08418952445702994  0.9192471703402044  0.33025256954355303  1.0000
  C   C14       1.0  0.9158104755571254  0.4192471702326778  0.16974743057087777  1.0000
  C   C15       1.0  0.9158104752683776  0.08075282987484875  0.6697474305442445  1.0000
  C   C16       1.0  0.08418952462412005  0.5807528299823753  0.8302525696990656  1.0000
  C   C17       1.0  0.1275714585408737  0.9644403352902596  0.2634452082395873  1.0000
  C   C18       1.0  0.8724285414732816  0.464440335182733  0.2365547918748436  1.0000
  C   C19       1.0  0.8724285416403715  0.035559664924793496  0.736554792030356  1.0000
  C   C20       1.0  0.12757145870796383  0.5355596631754832  0.7634452083950996  1.0000
  C   C21       1.0  0.12910050963015918  0.811078801127055  0.17396615185699876  1.0000
  C   C22       1.0  0.8708994903839961  0.31107880101952856  0.32603384825743204  1.0000
  C   C23       1.0  0.8708994905510862  0.18892119908799798  0.8260338484129445  1.0000
  C   C24       1.0  0.12910050979724927  0.6889211991955245  0.6739661520125111  1.0000
  C   C25       1.0  0.169155825517737  0.8637182515104972  0.10858629367148154  1.0000
  C   C26       1.0  0.8308441744964182  0.36371825140297065  0.3914137064429493  1.0000
  C   C27       1.0  0.8308441746635085  0.1362817487045559  0.8914137065984618  1.0000
  C   C28       1.0  0.16915582568482712  0.6362817488120824  0.6085862938269939  1.0000
  C   C29       1.0  0.2078822714466982  0.06778930456948497  0.13388790750069254  1.0000
  C   C30       1.0  0.792117728567457  0.5677893046770115  0.3661120926137383  1.0000
  C   C31       1.0  0.7921177287345472  0.9322106956455681  0.8661120927692506  1.0000
  C   C32       1.0  0.20788227161378833  0.4322106955380416  0.6338879076562048  1.0000
  C   C33       1.0  0.16849875854537613  0.16454117955826364  0.2829323713278919  1.0000
  C   C34       1.0  0.831501241468779  0.6645411796657902  0.2170676287865389  1.0000
  C   C35       1.0  0.8315012416358694  0.8354588206567894  0.7170676289420513  1.0000
  C   C36       1.0  0.1684987582566284  0.3354588205492629  0.7829323713012585  1.0000
  C   C37       1.0  0.27544190837996607  0.6680822901633758  0.37342594338983215  1.0000
  C   C38       1.0  0.7245580916341892  0.16808229005584924  0.12657405672459868  1.0000
  C   C39       1.0  0.7245580913454415  0.3319177100516773  0.6265740566979654  1.0000
  C   C40       1.0  0.27544190854443323  0.8319177101592038  0.8734259427533736  1.0000
  C   C41       1.0  0.31877157044538007  0.8695284593930663  0.42072891585053196  1.0000
  C   C42       1.0  0.6812284295687752  0.3695284592855398  0.0792710842638988  1.0000
  C   C43       1.0  0.6812284297358654  0.13047154082198673  0.5792710844194112  1.0000
  C   C44       1.0  0.31877157060984723  0.6304715409295132  0.9207289152140735  1.0000
  C   C45       1.0  0.3635354222753247  0.9536712179628767  0.36868096328094  1.0000
  C   C46       1.0  0.6364645777388305  0.4536712178553502  0.13131903683349078  1.0000
  C   C47       1.0  0.6364645774500828  0.046328782252176355  0.6313190368068574  1.0000
  C   C48       1.0  0.3635354224424149  0.546328782359703  0.8686809634364525  1.0000
  C   C49       1.0  0.40287693486850934  0.14335060418780374  0.41594773706074356  1.0000
  C   C50       1.0  0.597123065145646  0.6433506042953303  0.08405226305368728  1.0000
  C   C51       1.0  0.5971230653127361  0.8566493960272493  0.5840522632091997  1.0000
  C   C52       1.0  0.4028769350355994  0.3566493959197228  0.9159477372162559  1.0000
  C   C53       1.0  0.3981903049047977  0.24936571292842097  0.514892758233778  1.0000
  C   C54       1.0  0.6018096949877  0.7493657130359475  0.9851072420095318  1.0000
  C   C55       1.0  0.6018096948206099  0.7506342854297952  0.4851072418540195  1.0000
  C   C56       1.0  0.3981903051935454  0.2506342871791055  0.01489275826041131  1.0000
  C   C57       1.0  0.35384370033565793  0.1631965381276052  0.5666081354044047  1.0000
  C   C58       1.0  0.6461562995542167  0.6631965382351317  0.9333918640469342  1.0000
  C   C59       1.0  0.6461562998429644  0.8368034620874479  0.4333918640735676  1.0000
  C   C60       1.0  0.3538437001711908  0.33680346197992134  0.06660813604086327  1.0000
  C   C61       1.0  0.3142025469307823  0.974546569275799  0.5198289193911986  1.0000
  C   C62       1.0  0.6857974529617153  0.4745465691682725  0.9801710808521112  1.0000
  C   C63       1.0  0.685797453250463  0.025453430939254125  0.48017108087874466  1.0000
  C   C64       1.0  0.3142025467636922  0.5254534310467807  0.019828919235686162  1.0000
  C   C65       1.0  0.45132140476672816  0.2365148270623868  0.3616757162792981  1.0000
  C   C66       1.0  0.548678595247427  0.7365148271699133  0.1383242838351327  1.0000
  C   C67       1.0  0.5486785954118942  0.7634851731526663  0.6383242831986742  1.0000
  C   C68       1.0  0.45132140493381834  0.26348517304513974  0.8616757164348106  1.0000
  N   N1        1.0  0.20738488167958105  0.21314094945537607  0.21989919617048173  1.0000
  N   N2        1.0  0.7926151183345742  0.7131409495629025  0.2801008039439491  1.0000
  N   N3        1.0  0.7926151185016644  0.786859050759677  0.7801008040994616  1.0000
  N   N4        1.0  0.20738488139083333  0.2868590506521505  0.7198991961438485  1.0000
  O   O1        1.0  0.28547191802488786  0.5671161010357418  0.283489802473054  1.0000
  O   O2        1.0  0.7145280819892674  0.06711610092821527  0.21651019764137683  1.0000
  O   O3        1.0  0.7145280821563575  0.4328838991793113  0.7165101977968893  1.0000
  O   O4        1.0  0.2854719177335172  0.9328838974300009  0.7834898016544497  1.0000
  O   O5        1.0  0.23343551600224574  0.604388040669909  0.4160179327825025  1.0000
  O   O6        1.0  0.7665644840119095  0.10438804241921942  0.08398206733192842  1.0000
  O   O7        1.0  0.7665644837231618  0.39561195768830715  0.5839820673052951  1.0000
  O   O8        1.0  0.2334355161693359  0.8956119577958337  0.9160179329380148  1.0000
  F   F1        1.0  0.4561486415296184  0.09662339673079026  0.2740800039281714  1.0000
  F   F2        1.0  0.5438513584845368  0.5966233968383168  0.22591999618625946  1.0000
  F   F3        1.0  0.5438513581957891  0.9033766034842629  0.7259199961596262  1.0000
  F   F4        1.0  0.4561486416967085  0.4033766033767363  0.7740800040836838  1.0000
  F   F5        1.0  0.5078264804639758  0.23812187482528982  0.43131598708172425  1.0000
  F   F6        1.0  0.49217351955017935  0.7381218730759795  0.06868401303270655  1.0000
  F   F7        1.0  0.49217351971726947  0.7618781253897633  0.568684013188219  1.0000
  F   F8        1.0  0.5078264806310661  0.2618781252822367  0.9313159872372367  1.0000
  F   F9        1.0  0.4406188921187674  0.4761969703588479  0.32580711570391074  1.0000
  F   F10       1.0  0.5593811078953879  0.9761969704663744  0.17419288441052005  1.0000
  F   F11       1.0  0.5593811080624779  0.5238030298562052  0.6741928845660324  1.0000
  F   F12       1.0  0.4406188922858575  0.023803029748678636  0.8258071158594232  1.0000
  S   S1        1.0  0.07424880628664994  0.1305840539964079  0.42839023461510106  1.0000
  S   S2        1.0  0.9257511937275054  0.6305840541039345  0.07160976549932974  1.0000
  S   S3        1.0  0.9257511934387577  0.8694159462186453  0.5716097654726964  1.0000
  S   S4        1.0  0.07424880645374005  0.3694159461111186  0.9283902347706136  1.0000
