data_image0
_chemical_formula_structural       H62C64O12S2
_chemical_formula_sum              "H62 C64 O12 S2"
_cell_length_a       9.368674806859607
_cell_length_b       10.05890108307934
_cell_length_c       13.81122978520516
_cell_angle_alpha    90.0
_cell_angle_beta     90.93697238750444
_cell_angle_gamma    90.0

_space_group_name_H-M_alt    "P 1"
_space_group_IT_number       1

loop_
  _space_group_symop_operation_xyz
  'x, y, z'

loop_
  _atom_site_type_symbol
  _atom_site_label
  _atom_site_symmetry_multiplicity
  _atom_site_fract_x
  _atom_site_fract_y
  _atom_site_fract_z
  _atom_site_occupancy
  H   H1        1.0  0.6619404451194714  0.9850903252909385  0.2040233817310606  1.0000
  H   H2        1.0  0.3380595541254055  0.48509032544400393  0.7959766181455808  1.0000
  H   H3        1.0  0.7856414992581517  0.8063666550657562  0.3396413330834081  1.0000
  H   H4        1.0  0.21435850105423918  0.30636665521882167  0.6603586668089807  1.0000
  H   H5        1.0  0.8784571377162798  0.15172357471207895  0.31868516945503067  1.0000
  H   H6        1.0  0.1215428625961112  0.6517235745590135  0.681314830437358  1.0000
  H   H7        1.0  0.8743594318701028  0.21717442014364122  0.48718779346832003  1.0000
  H   H8        1.0  0.12564056844228816  0.7171744199905759  0.5128122064240688  1.0000
  H   H9        1.0  0.8308108533700077  0.7902756249757725  0.4913381662206473  1.0000
  H   H10       1.0  0.16918914694238324  0.2902756251288379  0.5086618336717414  1.0000
  H   H11       1.0  0.026498251056619532  0.9924802388993985  0.7328424245495917  1.0000
  H   H12       1.0  0.9735017492557715  0.4924802390524638  0.26715757534279716  1.0000
  H   H13       1.0  0.9432568543767283  0.783736297323903  0.652067494441986  1.0000
  H   H14       1.0  0.05674314486814846  0.2837362974769685  0.3479325054346555  1.0000
  H   H15       1.0  0.9925041141442903  0.2081301399336454  0.6485611570946075  1.0000
  H   H16       1.0  0.007495886168100548  0.70813013978058  0.35143884279778126  1.0000
  H   H17       1.0  0.6091525865588324  0.8069804000413764  0.4676643848550022  1.0000
  H   H18       1.0  0.3908474137477997  0.30698040019444184  0.5323356157613607  1.0000
  H   H19       1.0  0.545686403411663  0.18617394132150142  0.3282209999992733  1.0000
  H   H20       1.0  0.4543135958332139  0.6861739421625804  0.6717789998773681  1.0000
  H   H21       1.0  0.35333840294840574  0.787593933429429  0.49213711944968497  1.0000
  H   H22       1.0  0.6466615973582264  0.28759393358249435  0.507862881166678  1.0000
  H   H23       1.0  0.1862101211223548  0.9668952741130448  0.43686481609937594  1.0000
  H   H24       1.0  0.813789878122522  0.46689527426611016  0.5631351837772656  1.0000
  H   H25       1.0  0.2844735512224837  0.16506228824468339  0.3518077448804736  1.0000
  H   H26       1.0  0.7155264480223932  0.665062288091618  0.648192254996168  1.0000
  H   H27       1.0  0.7500507892111397  0.5680405227974278  0.2759272286629589  1.0000
  H   H28       1.0  0.24994921003373727  0.06804052195634876  0.7240727712136825  1.0000
  H   H29       1.0  0.24936521976579504  0.7292600900847471  0.2588363114604565  1.0000
  H   H30       1.0  0.7506347794790819  0.22926009023781257  0.741163688416185  1.0000
  H   H31       1.0  0.5629235030314291  0.45349214912485686  0.3696233494766674  1.0000
  H   H32       1.0  0.4370764962134477  0.9534921499659359  0.630376650399974  1.0000
  H   H33       1.0  0.4363300476286172  0.844098410937026  0.16561880974074183  1.0000
  H   H34       1.0  0.5636699526837737  0.34409841109009137  0.834381190151647  1.0000
  H   H35       1.0  0.3117423109278254  0.5317232484766262  0.3597623129183029  1.0000
  H   H36       1.0  0.6882576883112927  0.0317232486296916  0.6402376876823127  1.0000
  H   H37       1.0  0.6272960353763681  0.009934610070686564  0.054188267532044275  1.0000
  H   H38       1.0  0.3727039638685087  0.5099346099176212  0.9458117323445973  1.0000
  H   H39       1.0  0.7075683823575213  0.5899991063619439  0.023726086163649834  1.0000
  H   H40       1.0  0.29243161688159686  0.08999910552086493  0.9762739144369658  1.0000
  H   H41       1.0  0.6375547896485737  0.6036755088699091  0.8497328594501751  1.0000
  H   H42       1.0  0.3624452095963032  0.10367550902297451  0.15026714042646647  1.0000
  H   H43       1.0  0.5543881924014359  0.02198160397182385  0.8827920355945583  1.0000
  H   H44       1.0  0.445611807910955  0.5219816038187585  0.11720796429783041  1.0000
  H   H45       1.0  0.5611727360144837  0.8213808677270231  0.7789963798280694  1.0000
  H   H46       1.0  0.4388272642979072  0.32138086788008846  0.2210036200643195  1.0000
  H   H47       1.0  0.9047431667703825  0.7196859179953128  0.10457788087107382  1.0000
  H   H48       1.0  0.09525683354200856  0.21968591814837815  0.895422119021315  1.0000
  H   H49       1.0  0.17554100438558337  0.6297915664621148  0.08299652160681809  1.0000
  H   H50       1.0  0.8244589959210488  0.12979156562103578  0.9170034790095447  1.0000
  H   H51       1.0  0.1608673615820345  0.7849712214868313  0.8320671291779932  1.0000
  H   H52       1.0  0.8391326387303565  0.2849712206457524  0.1679328707143956  1.0000
  H   H53       1.0  0.18458224693531092  0.951023117832617  0.874767565132468  1.0000
  H   H54       1.0  0.81541775337708  0.4510231179856823  0.12523243475992088  1.0000
  H   H55       1.0  0.9832978987794039  0.9323068327787066  0.9832777014293507  1.0000
  H   H56       1.0  0.016702101532987183  0.43230683293177197  0.016722298463038063  1.0000
  H   H57       1.0  0.9206009658485443  0.8246917542468262  0.888101897086518  1.0000
  H   H58       1.0  0.0793990344638466  0.32469175439989156  0.11189810280587091  1.0000
  H   H59       1.0  0.34338328412003977  0.7351542896111481  0.9484899028845579  1.0000
  H   H60       1.0  0.6566167151248372  0.23515428976421351  0.051510096992083684  1.0000
  H   H61       1.0  0.30508880151983525  0.874648975801108  0.019813427947705835  1.0000
  H   H62       1.0  0.6949111987925556  0.3746489759541734  0.980186571944683  1.0000
  C   C1        1.0  0.7547944747275656  0.9185719616572077  0.20619754427025214  1.0000
  C   C2        1.0  0.2452055255848254  0.41857196081612874  0.7938024556221367  1.0000
  C   C3        1.0  0.8106268401177936  0.9052182683570565  0.3108834316200609  1.0000
  C   C4        1.0  0.18937316018883854  0.40521826851012194  0.6891165689963019  1.0000
  C   C5        1.0  0.7583819889243804  0.015397193860523264  0.3806924157353457  1.0000
  C   C6        1.0  0.24161801138801053  0.515397193707458  0.619307584157043  1.0000
  C   C7        1.0  0.8406521377695775  0.005654370147418556  0.4775930642737899  1.0000
  C   C8        1.0  0.15934786254281344  0.5056543699943532  0.5224069356185989  1.0000
  C   C9        1.0  0.8903822107582167  0.121699425204532  0.5227897571435224  1.0000
  C   C10       1.0  0.10961778848666018  0.6216994250514667  0.4772102427331191  1.0000
  C   C11       1.0  0.8639811559406445  0.8837467051896531  0.5246424960493126  1.0000
  C   C12       1.0  0.13601884436598766  0.3837467043485742  0.4753575045670503  1.0000
  C   C13       1.0  0.9769283214363835  0.9954686538118948  0.6609566614932026  1.0000
  C   C14       1.0  0.023071678876007258  0.4954686539649602  0.3390433383991861  1.0000
  C   C15       1.0  0.9302971908198971  0.8789366638540853  0.6157320802259129  1.0000
  C   C16       1.0  0.06970280949249388  0.3789366640071507  0.38426791966647583  1.0000
  C   C17       1.0  0.9583479220530844  0.11656516455583399  0.6134686659947156  1.0000
  C   C18       1.0  0.04165207825930649  0.6165651644027687  0.3865313338976732  1.0000
  C   C19       1.0  0.597127619251627  0.9994362144500181  0.39608937705763164  1.0000
  C   C20       1.0  0.4028723810607638  0.4994362146030833  0.6039106228347572  1.0000
  C   C21       1.0  0.5405030215016376  0.8872732772979794  0.44191733362029234  1.0000
  C   C22       1.0  0.4594969777374805  0.3872732774510448  0.5580826669803233  1.0000
  C   C23       1.0  0.5028173010813837  0.09888798704594581  0.36399788560824403  1.0000
  C   C24       1.0  0.49718269816349325  0.5988879868928805  0.6360021142683974  1.0000
  C   C25       1.0  0.39404395950376553  0.8758997764498154  0.4562777365343042  1.0000
  C   C26       1.0  0.6059560397411112  0.3758997766028809  0.5437222633423373  1.0000
  C   C27       1.0  0.3007185545951768  0.9758865226851315  0.4250397512297234  1.0000
  C   C28       1.0  0.6992814457172142  0.475886522838197  0.5749602486626654  1.0000
  C   C29       1.0  0.35592131651856407  0.0870650941655246  0.37817813069539935  1.0000
  C   C30       1.0  0.6440786837938268  0.5870650950066036  0.6218218691969895  1.0000
  C   C31       1.0  0.7218712008080541  0.7828361323928421  0.1573135443720825  1.0000
  C   C32       1.0  0.2781287984368228  0.28283613254590745  0.842686455504559  1.0000
  C   C33       1.0  0.6058848548115825  0.7134003278023286  0.21477722967786889  1.0000
  C   C34       1.0  0.3941151455008085  0.21340032696124975  0.7852227702145199  1.0000
  C   C35       1.0  0.640467300428326  0.6034957128877175  0.27265325958927966  1.0000
  C   C36       1.0  0.3595326998840649  0.10349571304078295  0.7273467403031091  1.0000
  C   C37       1.0  0.3591878160419583  0.6938992154661142  0.2629299554401379  1.0000
  C   C38       1.0  0.6408121832029187  0.1938992156191796  0.7370700444365036  1.0000
  C   C39       1.0  0.5347988563471615  0.5388810830557051  0.3247838492880195  1.0000
  C   C40       1.0  0.46520114396522944  0.03888108320877055  0.6752161506043692  1.0000
  C   C41       1.0  0.46459127907816933  0.7588841809808451  0.21083002420926372  1.0000
  C   C42       1.0  0.5354087212342216  0.2588841811339105  0.7891699756831251  1.0000
  C   C43       1.0  0.3939789164246122  0.5832090147370353  0.31968395232845936  1.0000
  C   C44       1.0  0.6060210838877788  0.08320901489010081  0.6803160475639294  1.0000
  C   C45       1.0  0.6737904215969779  0.7985852682767297  0.051494878500378774  1.0000
  C   C46       1.0  0.326209578715413  0.298585268429795  0.94850512139201  1.0000
  C   C47       1.0  0.6292603605600432  0.9194928813405301  0.010903274623819141  1.0000
  C   C48       1.0  0.37073963975234764  0.4194928814935954  0.9890967252685695  1.0000
  C   C49       1.0  0.673881531170824  0.6847369631247495  0.992620164979316  1.0000
  C   C50       1.0  0.32611846807405276  0.18473696327781486  0.0073798348973255065  1.0000
  C   C51       1.0  0.6342276076953527  0.6923402380121676  0.8951263529886979  1.0000
  C   C52       1.0  0.3657723926170382  0.19234023816523296  0.10487364690369089  1.0000
  C   C53       1.0  0.5882306052847612  0.9270551378307502  0.9133362068314315  1.0000
  C   C54       1.0  0.4117693950276297  0.42705513798381567  0.08666379306095737  1.0000
  C   C55       1.0  0.591559759885572  0.8139445504412485  0.8551397534035957  1.0000
  C   C56       1.0  0.40844024042681887  0.3139445505943138  0.14486024648879312  1.0000
  C   C57       1.0  0.15453649090980873  0.7134222496800944  0.03528137368394544  1.0000
  C   C58       1.0  0.8454635094025823  0.21342224983315977  0.9647186262084433  1.0000
  C   C59       1.0  0.15621530068750925  0.8494438745772291  0.8959779847078291  1.0000
  C   C60       1.0  0.8437846996248817  0.3494438747302945  0.10402201518455977  1.0000
  C   C61       1.0  0.008052791479666848  0.8437356615700858  0.9397942231737517  1.0000
  C   C62       1.0  0.991947208832724  0.3437356617231513  0.060205776718637014  1.0000
  C   C63       1.0  0.2539488837015636  0.793459070138969  0.9774025277195528  1.0000
  C   C64       1.0  0.7460511166108273  0.29345907029203433  0.022597472172835874  1.0000
  O   O1        1.0  0.8671624530221295  0.9843496439840578  0.15274280462609016  1.0000
  O   O2        1.0  0.13283754622274752  0.48434964413712306  0.8472571952505514  1.0000
  O   O3        1.0  0.9659084704411625  0.9100261414637274  0.304592784948966  1.0000
  O   O4        1.0  0.034091529871228536  0.4100261416167928  0.6954072149434226  1.0000
  O   O5        1.0  0.7781154167138895  0.14260302772168001  0.33726571926284565  1.0000
  O   O6        1.0  0.22188458359274268  0.6426030275686145  0.6627342813535172  1.0000
  O   O7        1.0  0.8481513382833831  0.7033734730627328  0.16346879953363017  1.0000
  O   O8        1.0  0.1518486620290078  0.20337347321579827  0.8365312003587587  1.0000
  O   O9        1.0  0.04626968894864504  0.12848725018024973  0.2369211859129112  1.0000
  O   O10       1.0  0.953730311363746  0.6284872500271844  0.7630788139794776  1.0000
  O   O11       1.0  0.014245015642457913  0.7295430017046644  0.005732142843616365  1.0000
  O   O12       1.0  0.9857549846699328  0.2295430018577297  0.9942678570487724  1.0000
  S   S1        1.0  0.023229238369312257  0.9894751114256977  0.20909979381912308  1.0000
  S   S2        1.0  0.9767707619430788  0.4894751115787631  0.7909002060732657  1.0000
