data_image0
_chemical_formula_structural       H44C44N8O8S4
_chemical_formula_sum              "H44 C44 N8 O8 S4"
_cell_length_a       11.11253471699499
_cell_length_b       5.35223106017771
_cell_length_c       18.635651534078672
_cell_angle_alpha    90.0
_cell_angle_beta     97.29579936449666
_cell_angle_gamma    90.0

_space_group_name_H-M_alt    "P 1"
_space_group_IT_number       1

loop_
  _space_group_symop_operation_xyz
  'x, y, z'

loop_
  _atom_site_type_symbol
  _atom_site_label
  _atom_site_symmetry_multiplicity
  _atom_site_fract_x
  _atom_site_fract_y
  _atom_site_fract_z
  _atom_site_occupancy
  H   H1        1.0  0.45526770645859516  0.6460414472250368  0.7825835735811334  1.0000
  H   H2        1.0  0.044732293795637305  0.14604144724163814  0.71741642597069  1.0000
  H   H3        1.0  0.5447322934745762  0.3539585527417604  0.2174164263204942  1.0000
  H   H4        1.0  0.955267706137534  0.8539585527251589  0.28258357393093764  1.0000
  H   H5        1.0  0.8589966024178314  0.2883799956776814  0.9511161446568738  1.0000
  H   H6        1.0  0.6410033983891547  0.78837999566108  0.5488838552650458  1.0000
  H   H7        1.0  0.14100339842256895  0.7116200042891158  0.04888385531423199  1.0000
  H   H8        1.0  0.3589966024512456  0.21162000430571717  0.45111614470606  1.0000
  H   H9        1.0  0.8165505355589981  0.07530810151283286  0.8784270548077969  1.0000
  H   H10       1.0  0.6834494643407588  0.5753081014962315  0.6215729450446443  1.0000
  H   H11       1.0  0.18344946437417312  0.9246918984539643  0.12157294509383061  1.0000
  H   H12       1.0  0.31655053559241253  0.4246918984705657  0.37842705485698314  1.0000
  H   H13       1.0  0.8378534775894309  0.9522409034094985  0.040662133721547165  1.0000
  H   H14       1.0  0.6621465220226794  0.45224090342609996  0.4593378665298846  1.0000
  H   H15       1.0  0.16214652234374055  0.04775909655729862  0.9593378661800804  1.0000
  H   H16       1.0  0.3378534779104919  0.5477590965406972  0.5406621333717428  1.0000
  H   H17       1.0  0.9348786136783609  0.8423054011144119  0.9782208029997339  1.0000
  H   H18       1.0  0.565121386220082  0.3423054011310134  0.5217791973892133  1.0000
  H   H19       1.0  0.0651213862534963  0.15769459885238515  0.02177919743839955  1.0000
  H   H20       1.0  0.43487861371308945  0.6576945988357836  0.4782208025124143  1.0000
  H   H21       1.0  0.7812746802821525  0.7410590490964916  0.9708119713969664  1.0000
  H   H22       1.0  0.7187253196176044  0.24105904911309295  0.529188028455475  1.0000
  H   H23       1.0  0.21872531965101882  0.2589409508703056  0.02918802850466116  1.0000
  H   H24       1.0  0.28127468031556685  0.7589409508537042  0.4708119714461527  1.0000
  H   H25       1.0  0.6355864364991014  0.40864843191717126  0.7498161292454633  1.0000
  H   H26       1.0  0.8644135634006556  0.9086484319005698  0.7501838706069781  1.0000
  H   H27       1.0  0.36441356343406994  0.5913515680496259  0.2501838706561643  1.0000
  H   H28       1.0  0.13558643653251573  0.09135156806622731  0.2498161292946495  1.0000
  H   H29       1.0  0.639897387922987  0.04455882926550661  0.6652210419415768  1.0000
  H   H30       1.0  0.86010261197677  0.5445588292489052  0.8347789579108646  1.0000
  H   H31       1.0  0.3601026120101844  0.9554411707012905  0.33477895796005086  1.0000
  H   H32       1.0  0.13989738795640133  0.455441170717892  0.16522104199076296  1.0000
  H   H33       1.0  0.4404216680326665  0.8850536844802657  0.6011389583092411  1.0000
  H   H34       1.0  0.05957833222025163  0.38505368449686705  0.898861041779088  1.0000
  H   H35       1.0  0.5595783319005049  0.1149463154865315  0.39886104159238644  1.0000
  H   H36       1.0  0.9404216677116054  0.6149463154699301  0.10113895865904539  1.0000
  H   H37       1.0  0.248014728665613  0.10224862563796516  0.6230932836242196  1.0000
  H   H38       1.0  0.25198527158730516  0.6022486256213637  0.8769067164641097  1.0000
  H   H39       1.0  0.7519852721747874  0.8977513743288319  0.37690671634688616  1.0000
  H   H40       1.0  0.7480147283445521  0.39775137434543345  0.12309328397402379  1.0000
  H   H41       1.0  0.26136272190295723  0.45772370296708714  0.710991701718549  1.0000
  H   H42       1.0  0.23863727744273197  0.9577237029504857  0.789008298300302  1.0000
  H   H43       1.0  0.7386372780302141  0.5422762969997099  0.2890082981830786  1.0000
  H   H44       1.0  0.761362722489125  0.04227629701631138  0.21099170213783133  1.0000
  C   C1        1.0  0.5276438992051765  0.40758903258701384  0.9793212928553017  1.0000
  C   C2        1.0  0.9723561006945804  0.9075890325704125  0.5206787069971398  1.0000
  C   C3        1.0  0.47235610072799483  0.5924109673797833  0.020678707046326055  1.0000
  C   C4        1.0  0.027643899238590813  0.09241096739638473  0.4793212929044878  1.0000
  C   C5        1.0  0.6741144421769805  0.19155558279764529  0.9368833623957745  1.0000
  C   C6        1.0  0.8258855577227765  0.6915555827810439  0.5631166374566668  1.0000
  C   C7        1.0  0.3258855577561908  0.8084444171691518  0.06311663750585308  1.0000
  C   C8        1.0  0.17411444221039482  0.3084444171857533  0.4368833624449607  1.0000
  C   C9        1.0  0.5732376553618738  0.07631604192858556  0.8985025178207326  1.0000
  C   C10       1.0  0.9267623445378832  0.5763160419119842  0.6014974820317086  1.0000
  C   C11       1.0  0.4267623445712976  0.9236839580382116  0.10149748208089486  1.0000
  C   C12       1.0  0.07323765539528812  0.42368395805481296  0.3985025178699189  1.0000
  C   C13       1.0  0.5684599325578813  0.8686414091109202  0.8462357141709526  1.0000
  C   C14       1.0  0.9315400673418758  0.3686414091275217  0.6537642856814888  1.0000
  C   C15       1.0  0.43154006737529005  0.1313585908558769  0.15376428573067502  1.0000
  C   C16       1.0  0.06845993259129561  0.6313585908392755  0.34623571422013877  1.0000
  C   C17       1.0  0.8038549421679246  0.12322385984175017  0.9341884609664963  1.0000
  C   C18       1.0  0.6961450577318322  0.6232238598251487  0.5658115388859452  1.0000
  C   C19       1.0  0.19614505776524657  0.876776140125047  0.06581153893513135  1.0000
  C   C20       1.0  0.3038549422013391  0.3767761401416484  0.4341884610156825  1.0000
  C   C21       1.0  0.8419318917901726  0.9008276783625845  0.9839426243897352  1.0000
  C   C22       1.0  0.6580681081095843  0.4008276783791858  0.5160573754627061  1.0000
  C   C23       1.0  0.15806810814299865  0.09917232160421267  0.016057375511892357  1.0000
  C   C24       1.0  0.341931891823587  0.5991723215876112  0.48394262443892144  1.0000
  C   C25       1.0  0.5528877383171575  0.32983874204066677  0.7206705326757538  1.0000
  C   C26       1.0  0.9471122615812851  0.8298387420240653  0.7793294677131933  1.0000
  C   C27       1.0  0.4471122616146995  0.6701612579261303  0.27932946776237966  1.0000
  C   C28       1.0  0.052887738351886156  0.1701612579427318  0.22067053218843422  1.0000
  C   C29       1.0  0.5536067523218182  0.12781912483002655  0.6737083294833585  1.0000
  C   C30       1.0  0.9463932484851677  0.6278191248134251  0.826291670438561  1.0000
  C   C31       1.0  0.4463932485185821  0.8721808751367706  0.32629167048774727  1.0000
  C   C32       1.0  0.05360675144800362  0.372180875153372  0.17370832946306652  1.0000
  C   C33       1.0  0.44315523732268153  0.04219578853393176  0.6384076259855715  1.0000
  C   C34       1.0  0.05684476293023667  0.5421957885173303  0.8615923741027576  1.0000
  C   C35       1.0  0.55684476261049  0.9578042114328653  0.36159237391605603  1.0000
  C   C36       1.0  0.9431552379101636  0.45780421144946676  0.13840762586834815  1.0000
  C   C37       1.0  0.33564521191534763  0.16012680513302502  0.6508394632231859  1.0000
  C   C38       1.0  0.16435478833757047  0.6601268051164235  0.8491605368651433  1.0000
  C   C39       1.0  0.6643547889250526  0.8398731948337721  0.34916053674791986  1.0000
  C   C40       1.0  0.8356452115956008  0.33987319485037354  0.1508394630364843  1.0000
  C   C41       1.0  0.3426025157874607  0.35962725419707325  0.6990043684377365  1.0000
  C   C42       1.0  0.15739748446545743  0.8596272541804718  0.8009956316505926  1.0000
  C   C43       1.0  0.6573974850529395  0.6403727457697238  0.3009956315333693  1.0000
  C   C44       1.0  0.8426025154663995  0.1403727457863253  0.19900436878754063  1.0000
  N   N1        1.0  0.6466079105807276  0.37668447743230643  0.9824227282796234  1.0000
  N   N2        1.0  0.8533920893190295  0.876684477415705  0.517577271572818  1.0000
  N   N3        1.0  0.3533920893524437  0.6233155225344907  0.017577271622004162  1.0000
  N   N4        1.0  0.14660791061414197  0.12331552255109213  0.4824227283288096  1.0000
  N   N5        1.0  0.44921055961503675  0.4415531249358154  0.7328997140374308  1.0000
  N   N6        1.0  0.05078943973065249  0.941553124919214  0.7671002859814201  1.0000
  N   N7        1.0  0.5507894403181347  0.5584468750309817  0.2671002858641967  1.0000
  N   N8        1.0  0.9492105602025187  0.05844687504758313  0.23289971392020745  1.0000
  O   O1        1.0  0.6607482740807388  0.7683304315085868  0.8284487516438184  1.0000
  O   O2        1.0  0.8392517267262471  0.26833043152518815  0.6715512482781011  1.0000
  O   O3        1.0  0.3392517267596616  0.23166956845821043  0.17155124832728733  1.0000
  O   O4        1.0  0.16074827411415302  0.7316695684416089  0.3284487516930046  1.0000
  O   O5        1.0  0.4556846369404201  0.8036049231882735  0.8212297059516378  1.0000
  O   O6        1.0  0.044315363312498  0.3036049232048749  0.6787702941366914  1.0000
  O   O7        1.0  0.5443153629914369  0.1963950767785236  0.17877029448649567  1.0000
  O   O8        1.0  0.9556846375279022  0.6963950767619221  0.3212297058344143  1.0000
  S   S1        1.0  0.4414000994163009  0.20781364770957206  0.9208935474716116  1.0000
  S   S2        1.0  0.05859989992938828  0.7078136476929706  0.5791064525472394  1.0000
  S   S3        1.0  0.5585999005168705  0.792186352257225  0.079106452430016  1.0000
  S   S4        1.0  0.941400100003783  0.29218635227382644  0.42089354735438816  1.0000
