data_image0
_chemical_formula_structural       H84C204Br12
_chemical_formula_sum              "H84 C204 Br12"
_cell_length_a       8.374212554714308
_cell_length_b       17.81186182269092
_cell_length_c       21.825274545593484
_cell_angle_alpha    90.0
_cell_angle_beta     90.0
_cell_angle_gamma    90.0

_space_group_name_H-M_alt    "P 1"
_space_group_IT_number       1

loop_
  _space_group_symop_operation_xyz
  'x, y, z'

loop_
  _atom_site_type_symbol
  _atom_site_label
  _atom_site_symmetry_multiplicity
  _atom_site_fract_x
  _atom_site_fract_y
  _atom_site_fract_z
  _atom_site_occupancy
  H   H1        1.0  0.3356268104775716  0.750000000167406  0.40703929663939215  1.0000
  H   H2        1.0  0.16437318983802174  0.25000000024294317  0.9070392965112498  1.0000
  H   H3        1.0  0.835626810793165  0.750000000167406  0.09296070323246554  1.0000
  H   H4        1.0  0.6643731901536152  0.25000000024294317  0.5929607035625076  1.0000
  H   H5        1.0  0.24820652167825358  0.4720301720109462  0.8650548995642247  1.0000
  H   H6        1.0  0.2517934774431977  0.5279698278379793  0.36505489969236704  1.0000
  H   H7        1.0  0.748206521993847  0.027969827913516536  0.6349451005095327  1.0000
  H   H8        1.0  0.751793477758791  0.9720301724968327  0.13494510063767504  1.0000
  H   H9        1.0  0.751793477758791  0.5279698278379793  0.13494510063767504  1.0000
  H   H10       1.0  0.748206521993847  0.4720301720109462  0.6349451005095327  1.0000
  H   H11       1.0  0.2517934774431977  0.9720301724968327  0.36505489969236704  1.0000
  H   H12       1.0  0.24820652167825358  0.027969827913516536  0.8650548995642247  1.0000
  H   H13       1.0  0.10395363794652317  0.4723947678103436  0.963255204697739  1.0000
  H   H14       1.0  0.3960463623690702  0.5276052320385819  0.46325520436769685  1.0000
  H   H15       1.0  0.6039536370679743  0.027605232114119138  0.5367447953760185  1.0000
  H   H16       1.0  0.8960463626846635  0.9723947677348064  0.03674479550416086  1.0000
  H   H17       1.0  0.8960463626846635  0.5276052320385819  0.03674479550416086  1.0000
  H   H18       1.0  0.6039536370679743  0.4723947678103436  0.5367447953760185  1.0000
  H   H19       1.0  0.3960463623690702  0.9723947677348064  0.46325520436769685  1.0000
  H   H20       1.0  0.10395363794652317  0.027605232114119138  0.963255204697739  1.0000
  H   H21       1.0  0.10688333907838522  0.5860484857737904  0.03004254671024897  1.0000
  H   H22       1.0  0.3931166612372082  0.41395151463655866  0.5300425465821067  1.0000
  H   H23       1.0  0.6068833381998365  0.9139515145610213  0.46995745316160875  1.0000
  H   H24       1.0  0.8931166615528016  0.08604848528790408  0.9699574530334664  1.0000
  H   H25       1.0  0.8931166615528016  0.41395151463655866  0.9699574530334664  1.0000
  H   H26       1.0  0.6068833381998365  0.5860484857737904  0.46995745316160875  1.0000
  H   H27       1.0  0.3931166612372082  0.08604848528790408  0.5300425465821067  1.0000
  H   H28       1.0  0.10688333907838522  0.9139515145610213  0.03004254671024897  1.0000
  H   H29       1.0  0.2523664554955996  0.699110029819373  0.9986394482446739  1.0000
  H   H30       1.0  0.24763354481999378  0.3008899700295524  0.49863944837281615  1.0000
  H   H31       1.0  0.7523664558111931  0.8008899705154389  0.5013605518290836  1.0000
  H   H32       1.0  0.7476335451355871  0.19911002989491028  0.001360551957225908  1.0000
  H   H33       1.0  0.7476335451355871  0.3008899700295524  0.001360551957225908  1.0000
  H   H34       1.0  0.7523664558111931  0.699110029819373  0.5013605518290836  1.0000
  H   H35       1.0  0.24763354481999378  0.19911002989491028  0.49863944837281615  1.0000
  H   H36       1.0  0.2523664554955996  0.8008899705154389  0.9986394482446739  1.0000
  H   H37       1.0  0.22604446419673893  0.5286501306676679  0.5683531249096914  1.0000
  H   H38       1.0  0.2739555361188544  0.47134986918125754  0.0683531245796493  1.0000
  H   H39       1.0  0.7260444633181902  0.9713498696671439  0.931646875164066  1.0000
  H   H40       1.0  0.7739555364344478  0.02865013074320519  0.4316468752922084  1.0000
  H   H41       1.0  0.7739555364344478  0.47134986918125754  0.4316468752922084  1.0000
  H   H42       1.0  0.7260444633181902  0.5286501306676679  0.931646875164066  1.0000
  H   H43       1.0  0.2739555361188544  0.02865013074320519  0.0683531245796493  1.0000
  H   H44       1.0  0.22604446419673893  0.9713498696671439  0.5683531249096914  1.0000
  H   H45       1.0  0.07140762263830555  0.41816769713042523  0.6000648501644712  1.0000
  H   H46       1.0  0.4285923764831457  0.5818323032799239  0.10006484983442912  1.0000
  H   H47       1.0  0.5714076229538989  0.08183230335546113  0.8999351499092862  1.0000
  H   H48       1.0  0.9285923767987391  0.918167697054888  0.39993515003742863  1.0000
  H   H49       1.0  0.9285923767987391  0.5818323032799239  0.39993515003742863  1.0000
  H   H50       1.0  0.5714076229538989  0.41816769713042523  0.8999351499092862  1.0000
  H   H51       1.0  0.4285923764831457  0.918167697054888  0.10006484983442912  1.0000
  H   H52       1.0  0.07140762263830555  0.08183230335546113  0.6000648501644712  1.0000
  H   H53       1.0  0.0745160498283159  0.37547425286446723  0.70882639838881  1.0000
  H   H54       1.0  0.4254839504872775  0.6245257475458819  0.20882639851695234  1.0000
  H   H55       1.0  0.5745160489497672  0.12452574705999553  0.7911736016849474  1.0000
  H   H56       1.0  0.9254839508028708  0.8754742527889299  0.2911736013549054  1.0000
  H   H57       1.0  0.9254839508028708  0.6245257475458819  0.2911736013549054  1.0000
  H   H58       1.0  0.5745160489497672  0.37547425286446723  0.7911736016849474  1.0000
  H   H59       1.0  0.4254839504872775  0.8754742527889299  0.20882639851695234  1.0000
  H   H60       1.0  0.0745160498283159  0.12452574705999553  0.70882639838881  1.0000
  H   H61       1.0  0.23400621935453772  0.44344557961581604  0.7856590593707798  1.0000
  H   H62       1.0  0.2659937809610557  0.5565544202331095  0.2856590590407378  1.0000
  H   H63       1.0  0.7340062196701311  0.05655442030864669  0.7143409407029776  1.0000
  H   H64       1.0  0.7659937812766491  0.9434455795402787  0.2143409408311199  1.0000
  H   H65       1.0  0.7659937812766491  0.5565544202331095  0.2143409408311199  1.0000
  H   H66       1.0  0.7340062196701311  0.44344557961581604  0.7143409407029776  1.0000
  H   H67       1.0  0.2659937809610557  0.9434455795402787  0.2856590590407378  1.0000
  H   H68       1.0  0.23400621935453772  0.05655442030864669  0.7856590593707798  1.0000
  H   H69       1.0  0.22402999896913933  0.6101061544367097  0.5201863136375625  1.0000
  H   H70       1.0  0.27597000134645405  0.38989384597363935  0.020186313765704785  1.0000
  H   H71       1.0  0.7240299992847328  0.8898938458981022  0.9798136864361949  1.0000
  H   H72       1.0  0.7759700004679053  0.11010615395082339  0.47981368656433726  1.0000
  H   H73       1.0  0.7759700004679053  0.38989384597363935  0.47981368656433726  1.0000
  H   H74       1.0  0.7240299992847328  0.6101061544367097  0.9798136864361949  1.0000
  H   H75       1.0  0.27597000134645405  0.11010615395082339  0.020186313765704785  1.0000
  H   H76       1.0  0.22402999896913933  0.8898938458981022  0.5201863136375625  1.0000
  H   H77       1.0  0.06330307435313065  0.6802592194244564  0.4448302260628447  1.0000
  H   H78       1.0  0.4366969259624627  0.3197407809858927  0.9448302259347025  1.0000
  H   H79       1.0  0.5633030746687241  0.8197407809103554  0.05516977426719732  1.0000
  H   H80       1.0  0.9366969262780561  0.1802592194999937  0.555169774139055  1.0000
  H   H81       1.0  0.9366969262780561  0.3197407809858927  0.555169774139055  1.0000
  H   H82       1.0  0.5633030746687241  0.6802592194244564  0.05516977426719732  1.0000
  H   H83       1.0  0.4366969259624627  0.1802592194999937  0.9448302259347025  1.0000
  H   H84       1.0  0.06330307435313065  0.8197407809103554  0.4448302260628447  1.0000
  C   C1        1.0  0.3887342563531406  0.750000000167406  0.3612830456509424  1.0000
  C   C2        1.0  0.11126574276831068  0.25000000024294317  0.8612830455228001  1.0000
  C   C3        1.0  0.888734256668734  0.750000000167406  0.13871695422091534  1.0000
  C   C4        1.0  0.6112657430839041  0.25000000024294317  0.6387169545509574  1.0000
  C   C5        1.0  0.593212125622894  0.750000000167406  0.6885583743107665  1.0000
  C   C6        1.0  0.9067878753238862  0.25000000024294317  0.18855837398072436  1.0000
  C   C7        1.0  0.09321212530730061  0.750000000167406  0.811441625762991  1.0000
  C   C8        1.0  0.4067878750082928  0.25000000024294317  0.31144162589113333  1.0000
  C   C9        1.0  0.5946131230209593  0.6849855512834178  0.72712725087823  1.0000
  C   C10       1.0  0.905386877925821  0.31501444856550775  0.22712725100637232  1.0000
  C   C11       1.0  0.09461312270536584  0.8150144484899705  0.7728727491955275  1.0000
  C   C12       1.0  0.40538687761022757  0.18498555135895495  0.27287274886548535  1.0000
  C   C13       1.0  0.40538687761022757  0.31501444856550775  0.27287274886548535  1.0000
  C   C14       1.0  0.09461312270536584  0.6849855512834178  0.7728727491955275  1.0000
  C   C15       1.0  0.905386877925821  0.18498555135895495  0.22712725100637232  1.0000
  C   C16       1.0  0.5946131230209593  0.8150144484899705  0.72712725087823  1.0000
  C   C17       1.0  0.5976452242285774  0.7098278156353849  0.7894902125517089  1.0000
  C   C18       1.0  0.9023547755240606  0.2901721847749642  0.2894902126798512  1.0000
  C   C19       1.0  0.09764522391298396  0.790172184699427  0.7105097875220486  1.0000
  C   C20       1.0  0.4023547752084673  0.20982781571092216  0.2105097871920065  1.0000
  C   C21       1.0  0.4023547752084673  0.2901721847749642  0.2105097871920065  1.0000
  C   C22       1.0  0.09764522391298396  0.7098278156353849  0.7105097875220486  1.0000
  C   C23       1.0  0.9023547755240606  0.20982781571092216  0.2894902126798512  1.0000
  C   C24       1.0  0.5976452242285774  0.790172184699427  0.7894902125517089  1.0000
  C   C25       1.0  0.49809922577756965  0.750000000167406  0.6369099720125424  1.0000
  C   C26       1.0  0.001900773343881649  0.25000000024294317  0.13690997214068476  1.0000
  C   C27       1.0  0.998099226093163  0.750000000167406  0.8630900276030306  1.0000
  C   C28       1.0  0.501900773659475  0.25000000024294317  0.3630900277311729  1.0000
  C   C29       1.0  0.4190328281104532  0.6826891995371958  0.6149825218446076  1.0000
  C   C30       1.0  0.08096717220514014  0.3173108003117297  0.11498252197274982  1.0000
  C   C31       1.0  0.9190328284260466  0.8173108007976161  0.88501747822915  1.0000
  C   C32       1.0  0.5809671713265914  0.18268919961273303  0.38501747789910784  1.0000
  C   C33       1.0  0.5809671713265914  0.3173108003117297  0.38501747789910784  1.0000
  C   C34       1.0  0.9190328284260466  0.6826891995371958  0.88501747822915  1.0000
  C   C35       1.0  0.08096717220514014  0.18268919961273303  0.11498252197274982  1.0000
  C   C36       1.0  0.4190328281104532  0.8173108007976161  0.6149825218446076  1.0000
  C   C37       1.0  0.419867627795119  0.6188458309258732  0.6530311804429325  1.0000
  C   C38       1.0  0.08013237252047434  0.38115416892305226  0.15303118057107484  1.0000
  C   C39       1.0  0.9198676281107124  0.881154168847515  0.8469688196308249  1.0000
  C   C40       1.0  0.5801323728360677  0.11884583100141048  0.3469688193007828  1.0000
  C   C41       1.0  0.5801323728360677  0.38115416892305226  0.3469688193007828  1.0000
  C   C42       1.0  0.9198676281107124  0.6188458309258732  0.8469688196308249  1.0000
  C   C43       1.0  0.08013237252047434  0.11884583100141048  0.15303118057107484  1.0000
  C   C44       1.0  0.419867627795119  0.881154168847515  0.6530311804429325  1.0000
  C   C45       1.0  0.500434439969021  0.6242735571771986  0.7116952488983053  1.0000
  C   C46       1.0  0.9995655597836169  0.3757264426717269  0.2116952490264476  1.0000
  C   C47       1.0  0.00043443965342770263  0.8757264425961896  0.7883047511754523  1.0000
  C   C48       1.0  0.4995655606621657  0.12427355725273587  0.28830475084541013  1.0000
  C   C49       1.0  0.4995655606621657  0.3757264426717269  0.28830475084541013  1.0000
  C   C50       1.0  0.00043443965342770263  0.6242735571771986  0.7883047511754523  1.0000
  C   C51       1.0  0.9995655597836169  0.12427355725273587  0.2116952490264476  1.0000
  C   C52       1.0  0.500434439969021  0.8757264425961896  0.7116952488983053  1.0000
  C   C53       1.0  0.4240309183459868  0.5774546862303312  0.757529816885537  1.0000
  C   C54       1.0  0.0759690819696066  0.42254531361859426  0.25752981655549484  1.0000
  C   C55       1.0  0.9240309186615802  0.9225453135430569  0.7424701831882206  1.0000
  C   C56       1.0  0.5759690810910578  0.07745468630586848  0.2424701833163629  1.0000
  C   C57       1.0  0.5759690810910578  0.42254531361859426  0.2424701833163629  1.0000
  C   C58       1.0  0.9240309186615802  0.5774546862303312  0.7424701831882206  1.0000
  C   C59       1.0  0.0759690819696066  0.07745468630586848  0.25752981655549484  1.0000
  C   C60       1.0  0.4240309183459868  0.9225453135430569  0.757529816885537  1.0000
  C   C61       1.0  0.4275429536338233  0.6017542414541777  0.8188516558023452  1.0000
  C   C62       1.0  0.07245704668177012  0.39824575839474785  0.31885165593048753  1.0000
  C   C63       1.0  0.9275429539494167  0.8982457588806342  0.6811483442714122  1.0000
  C   C64       1.0  0.5724570458032214  0.10175424152971492  0.18114834439955457  1.0000
  C   C65       1.0  0.5724570458032214  0.39824575839474785  0.18114834439955457  1.0000
  C   C66       1.0  0.9275429539494167  0.6017542414541777  0.6811483442714122  1.0000
  C   C67       1.0  0.07245704668177012  0.10175424152971492  0.31885165593048753  1.0000
  C   C68       1.0  0.4275429536338233  0.8982457588806342  0.8188516558023452  1.0000
  C   C69       1.0  0.5063869268057611  0.6723395667006578  0.8322849741043683  1.0000
  C   C70       1.0  0.993613074141019  0.32766043314826776  0.33228497423251063  1.0000
  C   C71       1.0  0.006386926490167731  0.8276604330727305  0.6677150259693891  1.0000
  C   C72       1.0  0.4936130738254257  0.172339566776195  0.16771502563934707  1.0000
  C   C73       1.0  0.4936130738254257  0.32766043314826776  0.16771502563934707  1.0000
  C   C74       1.0  0.006386926490167731  0.6723395667006578  0.6677150259693891  1.0000
  C   C75       1.0  0.993613074141019  0.172339566776195  0.33228497423251063  1.0000
  C   C76       1.0  0.5063869268057611  0.8276604330727305  0.8322849741043683  1.0000
  C   C77       1.0  0.43091672517537494  0.7105034322620909  0.8833314348337677  1.0000
  C   C78       1.0  0.06908327514021843  0.28949656758683456  0.38333143450372575  1.0000
  C   C79       1.0  0.9309167254909683  0.7894965675112973  0.6166685652399897  1.0000
  C   C80       1.0  0.5690832742616696  0.21050343233762817  0.11666856536813197  1.0000
  C   C81       1.0  0.5690832742616696  0.28949656758683456  0.11666856536813197  1.0000
  C   C82       1.0  0.9309167254909683  0.7105034322620909  0.6166685652399897  1.0000
  C   C83       1.0  0.06908327514021843  0.21050343233762817  0.38333143450372575  1.0000
  C   C84       1.0  0.43091672517537494  0.7894965675112973  0.8833314348337677  1.0000
  C   C85       1.0  0.33252332345354463  0.6520820729253389  0.9126286406335957  1.0000
  C   C86       1.0  0.16747667566790664  0.34791792692358653  0.4126286403035538  1.0000
  C   C87       1.0  0.832523323769138  0.8479179268480492  0.5873713594401616  1.0000
  C   C88       1.0  0.6674766759835  0.1520820730008762  0.08737135956830397  1.0000
  C   C89       1.0  0.6674766759835  0.34791792692358653  0.08737135956830397  1.0000
  C   C90       1.0  0.832523323769138  0.6520820729253389  0.5873713594401616  1.0000
  C   C91       1.0  0.16747667566790664  0.1520820730008762  0.4126286403035538  1.0000
  C   C92       1.0  0.33252332345354463  0.8479179268480492  0.9126286406335957  1.0000
  C   C93       1.0  0.33086805140146414  0.5864971676735018  0.8739226922508958  1.0000
  C   C94       1.0  0.16913194891412925  0.4135028321754238  0.373922692379038  1.0000
  C   C95       1.0  0.8308680517170576  0.9135028326613102  0.6260773078228618  1.0000
  C   C96       1.0  0.6691319492297226  0.086497167749039  0.12607730795100408  1.0000
  C   C97       1.0  0.6691319492297226  0.4135028321754238  0.12607730795100408  1.0000
  C   C98       1.0  0.8308680517170576  0.5864971676735018  0.6260773078228618  1.0000
  C   C99       1.0  0.16913194891412925  0.086497167749039  0.373922692379038  1.0000
  C   C100      1.0  0.33086805140146414  0.9135028326613102  0.8739226922508958  1.0000
  C   C101      1.0  0.2481111121105145  0.5227000390346312  0.89272177993902  1.0000
  C   C102      1.0  0.2518888882050788  0.4772999608142943  0.39272177960897797  1.0000
  C   C103      1.0  0.7481111112319658  0.977299960738757  0.6072782201347374  1.0000
  C   C104      1.0  0.7518888885206721  0.022700039110168442  0.10727822026287974  1.0000
  C   C105      1.0  0.7518888885206721  0.4772999608142943  0.10727822026287974  1.0000
  C   C106      1.0  0.7481111112319658  0.5227000390346312  0.6072782201347374  1.0000
  C   C107      1.0  0.2518888882050788  0.022700039110168442  0.39272177960897797  1.0000
  C   C108      1.0  0.2481111121105145  0.977299960738757  0.89272177993902  1.0000
  C   C109      1.0  0.16712696398088345  0.52278523226233  0.9487625269841446  1.0000
  C   C110      1.0  0.3328730351405678  0.4772147681480191  0.4487625271122869  1.0000
  C   C111      1.0  0.6671269642964768  0.977214768072482  0.5512374730896128  1.0000
  C   C112      1.0  0.8328730354561612  0.022785231776443617  0.05123747321775518  1.0000
  C   C113      1.0  0.8328730354561612  0.4772147681480191  0.05123747321775518  1.0000
  C   C114      1.0  0.6671269642964768  0.52278523226233  0.5512374730896128  1.0000
  C   C115      1.0  0.3328730351405678  0.022785231776443617  0.4487625271122869  1.0000
  C   C116      1.0  0.16712696398088345  0.977214768072482  0.9487625269841446  1.0000
  C   C117      1.0  0.1680499880801044  0.5863614974092668  0.9860282882143607  1.0000
  C   C118      1.0  0.33195001104134686  0.4136385024396586  0.486028288342503  1.0000
  C   C119      1.0  0.6680499883956977  0.9136385023641214  0.5139717118593968  1.0000
  C   C120      1.0  0.8319500113569402  0.0863614974848041  0.013971711529354693  1.0000
  C   C121      1.0  0.8319500113569402  0.4136385024396586  0.013971711529354693  1.0000
  C   C122      1.0  0.6680499883956977  0.5863614974092668  0.5139717118593968  1.0000
  C   C123      1.0  0.33195001104134686  0.0863614974848041  0.486028288342503  1.0000
  C   C124      1.0  0.1680499880801044  0.9136385023641214  0.9860282882143607  1.0000
  C   C125      1.0  0.25051635199049116  0.6509526098630121  0.968120033306341  1.0000
  C   C126      1.0  0.24948364832510217  0.3490473905473371  0.4681200334344834  1.0000
  C   C127      1.0  0.7505163511119425  0.8490473904717998  0.5318799667674163  1.0000
  C   C128      1.0  0.7494836486406956  0.15095260937712568  0.03187996689555869  1.0000
  C   C129      1.0  0.7494836486406956  0.3490473905473371  0.03187996689555869  1.0000
  C   C130      1.0  0.7505163511119425  0.6509526098630121  0.5318799667674163  1.0000
  C   C131      1.0  0.24948364832510217  0.15095260937712568  0.4681200334344834  1.0000
  C   C132      1.0  0.25051635199049116  0.8490473904717998  0.968120033306341  1.0000
  C   C133      1.0  0.3206307306456472  0.5267248277239682  0.7218000065516071  1.0000
  C   C134      1.0  0.17936926966994624  0.47327517212495723  0.22180000667974945  1.0000
  C   C135      1.0  0.8206307309612405  0.9732751720494202  0.7781999930639659  1.0000
  C   C136      1.0  0.6793692687913975  0.026724827799505448  0.27819999319210825  1.0000
  C   C137      1.0  0.6793692687913975  0.47327517212495723  0.27819999319210825  1.0000
  C   C138      1.0  0.8206307309612405  0.5267248277239682  0.7781999930639659  1.0000
  C   C139      1.0  0.17936926966994624  0.026724827799505448  0.22180000667974945  1.0000
  C   C140      1.0  0.3206307306456472  0.9732751720494202  0.7218000065516071  1.0000
  C   C141      1.0  0.31822680551615334  0.5515894984927364  0.6589293559610037  1.0000
  C   C142      1.0  0.18177319479944  0.44841050135618915  0.15892935563096158  1.0000
  C   C143      1.0  0.8182268058317468  0.948410501280652  0.8410706441127538  1.0000
  C   C144      1.0  0.6817731951150334  0.05158949856827358  0.3410706442408961  1.0000
  C   C145      1.0  0.6817731951150334  0.44841050135618915  0.3410706442408961  1.0000
  C   C146      1.0  0.8182268058317468  0.5515894984927364  0.8410706441127538  1.0000
  C   C147      1.0  0.18177319479944  0.05158949856827358  0.15892935563096158  1.0000
  C   C148      1.0  0.31822680551615334  0.948410501280652  0.6589293559610037  1.0000
  C   C149      1.0  0.22773020239692982  0.5121164795012954  0.6161711758496604  1.0000
  C   C150      1.0  0.2722697967245214  0.48788352034763005  0.1161711755196184  1.0000
  C   C151      1.0  0.7277302027125232  0.9878835208335164  0.8838288242240969  1.0000
  C   C152      1.0  0.7722697970401149  0.012116479576832668  0.3838288243522393  1.0000
  C   C153      1.0  0.7722697970401149  0.48788352034763005  0.3838288243522393  1.0000
  C   C154      1.0  0.7277302027125232  0.5121164795012954  0.8838288242240969  1.0000
  C   C155      1.0  0.2722697967245214  0.012116479576832668  0.1161711755196184  1.0000
  C   C156      1.0  0.22773020239692982  0.9878835208335164  0.6161711758496604  1.0000
  C   C157      1.0  0.14036258601273352  0.44883493368534466  0.6342423702887532  1.0000
  C   C158      1.0  0.3596374143028599  0.5511650661635809  0.13424237041689546  1.0000
  C   C159      1.0  0.6403625851341848  0.051165066239118116  0.8657576297850044  1.0000
  C   C160      1.0  0.8596374146184532  0.9488349336098073  0.36575762945496226  1.0000
  C   C161      1.0  0.8596374146184532  0.5511650661635809  0.36575762945496226  1.0000
  C   C162      1.0  0.6403625851341848  0.44883493368534466  0.8657576297850044  1.0000
  C   C163      1.0  0.3596374143028599  0.9488349336098073  0.13424237041689546  1.0000
  C   C164      1.0  0.14036258601273352  0.051165066239118116  0.6342423702887532  1.0000
  C   C165      1.0  0.14217970611812583  0.4249452687959661  0.6950480878630112  1.0000
  C   C166      1.0  0.3578202941974675  0.5750547310529593  0.19504808799115347  1.0000
  C   C167      1.0  0.6421797064337192  0.07505473112849657  0.8049519122107464  1.0000
  C   C168      1.0  0.857820294513061  0.9249452687204289  0.3049519123388886  1.0000
  C   C169      1.0  0.857820294513061  0.5750547310529593  0.3049519123388886  1.0000
  C   C170      1.0  0.6421797064337192  0.4249452687959661  0.8049519122107464  1.0000
  C   C171      1.0  0.3578202941974675  0.9249452687204289  0.19504808799115347  1.0000
  C   C172      1.0  0.14217970611812583  0.07505473112849657  0.6950480878630112  1.0000
  C   C173      1.0  0.2322372685543027  0.4638696320602696  0.7388158612307403  1.0000
  C   C174      1.0  0.2677627317612907  0.5361303677886559  0.2388158613588825  1.0000
  C   C175      1.0  0.7322372676757539  0.0361303678641931  0.7611841388430173  1.0000
  C   C176      1.0  0.7677627320768841  0.9638696325461559  0.2611841389711596  1.0000
  C   C177      1.0  0.7677627320768841  0.5361303677886559  0.2611841389711596  1.0000
  C   C178      1.0  0.7322372676757539  0.4638696320602696  0.7611841388430173  1.0000
  C   C179      1.0  0.2677627317612907  0.9638696325461559  0.2388158613588825  1.0000
  C   C180      1.0  0.2322372685543027  0.0361303678641931  0.7388158612307403  1.0000
  C   C181      1.0  0.3155698571935945  0.709487326804943  0.5648408080387232  1.0000
  C   C182      1.0  0.1844301431219989  0.29051267360540606  0.06484080770868114  1.0000
  C   C183      1.0  0.8155698575091879  0.7905126735298689  0.9351591920350343  1.0000
  C   C184      1.0  0.6844301422434502  0.2094873268804803  0.43515919216317656  1.0000
  C   C185      1.0  0.6844301422434502  0.29051267360540606  0.43515919216317656  1.0000
  C   C186      1.0  0.8155698575091879  0.709487326804943  0.9351591920350343  1.0000
  C   C187      1.0  0.1844301431219989  0.2094873268804803  0.06484080770868114  1.0000
  C   C188      1.0  0.3155698571935945  0.7905126735298689  0.5648408080387232  1.0000
  C   C189      1.0  0.22472475563574967  0.6709936574274643  0.521549703130686  1.0000
  C   C190      1.0  0.27527524467984366  0.32900634242146115  0.021549703258828382  1.0000
  C   C191      1.0  0.7247247547572009  0.8290063429073475  0.9784502969430714  1.0000
  C   C192      1.0  0.7752752449954371  0.17099365750300158  0.4784502966130293  1.0000
  C   C193      1.0  0.7752752449954371  0.32900634242146115  0.4784502966130293  1.0000
  C   C194      1.0  0.7247247547572009  0.6709936574274643  0.9784502969430714  1.0000
  C   C195      1.0  0.27527524467984366  0.17099365750300158  0.021549703258828382  1.0000
  C   C196      1.0  0.22472475563574967  0.8290063429073475  0.521549703130686  1.0000
  C   C197      1.0  0.1337973681321521  0.7108181680295141  0.47862061703636394  1.0000
  C   C198      1.0  0.36620263218344135  0.28918183238083506  0.9786206169082217  1.0000
  C   C199      1.0  0.6337973684477455  0.7891818323052977  0.021379382835493753  1.0000
  C   C200      1.0  0.8662026313048925  0.2108181675436277  0.5213793827073515  1.0000
  C   C201      1.0  0.8662026313048925  0.28918183238083506  0.5213793827073515  1.0000
  C   C202      1.0  0.6337973684477455  0.7108181680295141  0.021379382835493753  1.0000
  C   C203      1.0  0.36620263218344135  0.2108181675436277  0.9786206169082217  1.0000
  C   C204      1.0  0.1337973681321521  0.7891818323052977  0.47862061703636394  1.0000
  Br  Br1       1.0  0.5194457629990742  0.6606296246364154  0.3534455249983311  1.0000
  Br  Br2       1.0  0.9805542367535638  0.33937037521251  0.8534455248701889  1.0000
  Br  Br3       1.0  0.01944576268348081  0.8393703751369728  0.146554475331711  1.0000
  Br  Br4       1.0  0.48055423643797046  0.16062962471195272  0.6465544752035687  1.0000
  Br  Br5       1.0  0.48055423643797046  0.33937037521251  0.6465544752035687  1.0000
  Br  Br6       1.0  0.01944576268348081  0.6606296246364154  0.146554475331711  1.0000
  Br  Br7       1.0  0.9805542367535638  0.16062962471195272  0.8534455248701889  1.0000
  Br  Br8       1.0  0.5194457629990742  0.8393703751369728  0.3534455249983311  1.0000
  Br  Br9       1.0  0.21277427439991556  0.750000000167406  0.3026450506361951  1.0000
  Br  Br10      1.0  0.2872257259156778  0.25000000024294317  0.8026450509662372  1.0000
  Br  Br11      1.0  0.7127742747155089  0.750000000167406  0.19735494923566257  1.0000
  Br  Br12      1.0  0.7872257250371291  0.25000000024294317  0.6973549491075203  1.0000
