data_image0
_chemical_formula_structural       H68C72N8O4I4
_chemical_formula_sum              "H68 C72 N8 O4 I4"
_cell_length_a       19.739365751965316
_cell_length_b       5.680337069845936
_cell_length_c       14.500681719672643
_cell_angle_alpha    90.0
_cell_angle_beta     102.925584722453
_cell_angle_gamma    90.0

_space_group_name_H-M_alt    "P 1"
_space_group_IT_number       1

loop_
  _space_group_symop_operation_xyz
  'x, y, z'

loop_
  _atom_site_type_symbol
  _atom_site_label
  _atom_site_symmetry_multiplicity
  _atom_site_fract_x
  _atom_site_fract_y
  _atom_site_fract_z
  _atom_site_occupancy
  H   H1        1.0  0.33446602706512674  0.4628245010240748  0.44557027470601845  1.0000
  H   H2        1.0  0.665533972713188  0.9628245019178654  0.05442972581135011  1.0000
  H   H3        1.0  0.6655339727331884  0.5371754990030476  0.5544297257254751  1.0000
  H   H4        1.0  0.33446602708512707  0.037175498109256994  0.9455702746201434  1.0000
  H   H5        1.0  0.277664514171483  0.11485285678965786  0.2949200412348631  1.0000
  H   H6        1.0  0.7223354855004858  0.6148528559229897  0.2050799585750894  1.0000
  H   H7        1.0  0.7223354855204861  0.8851471432374646  0.7050799584892145  1.0000
  H   H8        1.0  0.27766451419148336  0.3851471441041328  0.7949200411489882  1.0000
  H   H9        1.0  0.21313982880482582  0.23557985970651113  0.4143695513341454  1.0000
  H   H10       1.0  0.7868601714822656  0.7355798606003018  0.0856304491970464  1.0000
  H   H11       1.0  0.7868601709934893  0.7644201403206113  0.5856304490973482  1.0000
  H   H12       1.0  0.21313982882482616  0.26442013942682063  0.9143695512482704  1.0000
  H   H13       1.0  0.26799101272771164  0.5825176445188921  0.5643542420413638  1.0000
  H   H14       1.0  0.7320089875993805  0.08251764362510147  0.9356457583180781  1.0000
  H   H15       1.0  0.7320089874730341  0.41748235550823026  0.4356457576965369  1.0000
  H   H16       1.0  0.26799101270771136  0.9174823564020209  0.06435424212723873  1.0000
  H   H17       1.0  0.357841962551337  0.8404534979698809  0.2579228055167326  1.0000
  H   H18       1.0  0.6421580371206319  0.34045349883654913  0.24207719429321997  1.0000
  H   H19       1.0  0.6421580371406321  0.15954650205724155  0.742077194207345  1.0000
  H   H20       1.0  0.3578419625713373  0.6595465011905733  0.7579228054308575  1.0000
  H   H21       1.0  0.012044249604833994  0.4432327376072924  0.8696328963298225  1.0000
  H   H22       1.0  0.987955750722258  0.9432327367406241  0.6303671040296194  1.0000
  H   H23       1.0  0.9879557507022578  0.55676726241983  0.13036710411549426  1.0000
  H   H24       1.0  0.012044249584833652  0.05676726328649821  0.36963289641569747  1.0000
  H   H25       1.0  0.11198980004100774  0.7705777308948883  0.9390572480867424  1.0000
  H   H26       1.0  0.8880101996709618  0.27057773176155664  0.5609427515514601  1.0000
  H   H27       1.0  0.8880101996509614  0.22942226913223404  0.060942751637335105  1.0000
  H   H28       1.0  0.1119898000210074  0.7294222682655658  0.43905724817261743  1.0000
  H   H29       1.0  0.07238833574088706  0.03587926165190188  0.0647494962508079  1.0000
  H   H30       1.0  0.9276116639310819  0.5358792625456926  0.43525050355914463  1.0000
  H   H31       1.0  0.9276116639510821  0.9641207383752205  0.9352505034732697  1.0000
  H   H32       1.0  0.07238833576088742  0.46412073748142985  0.564749496164933  1.0000
  H   H33       1.0  0.012137839838717693  0.26330210190159814  0.02261835192931384  1.0000
  H   H34       1.0  0.9878621603420278  0.76330210103493  0.47738164789446186  1.0000
  H   H35       1.0  0.9878621598532514  0.7366978981255243  0.9773816477947638  1.0000
  H   H36       1.0  0.012137839858718032  0.2366978989921925  0.5226183518434389  1.0000
  H   H37       1.0  0.05896571361693925  0.44547305008233107  0.7243595716816107  1.0000
  H   H38       1.0  0.9410342862013762  0.9454730492156628  0.7756404286640078  1.0000
  H   H39       1.0  0.9410342861813757  0.5545269499447915  0.2756404287498829  1.0000
  H   H40       1.0  0.05896571349059295  0.054526950811459626  0.22435957106006962  1.0000
  H   H41       1.0  0.15448392015902115  0.7983573306016853  0.7906762962447381  1.0000
  H   H42       1.0  0.845516080061725  0.29835732970789464  0.7093237034072877  1.0000
  H   H43       1.0  0.8455160800417247  0.2016426694254371  0.20932370349316262  1.0000
  H   H44       1.0  0.15448392013902085  0.7016426703192278  0.2906762963306131  1.0000
  H   H45       1.0  0.5513857171628401  0.5429331115527704  0.09506966814932606  1.0000
  H   H46       1.0  0.4486142825091286  0.0429331124194386  0.4049303316606264  1.0000
  H   H47       1.0  0.448614282635475  0.45706688847435206  0.9049303322821676  1.0000
  H   H48       1.0  0.5513857171828406  0.9570668876076839  0.5950696680634512  1.0000
  H   H49       1.0  0.5561344665740927  0.3057694144983386  0.019655975479394346  1.0000
  H   H50       1.0  0.4438655330978761  0.8057694153921293  0.4803440243305582  1.0000
  H   H51       1.0  0.4438655331178764  0.6942305855287838  0.9803440242446831  1.0000
  H   H52       1.0  0.556134466594093  0.19423058463499318  0.5196559753935194  1.0000
  H   H53       1.0  0.46952059056801976  0.7670537974110356  0.20712552081515895  1.0000
  H   H54       1.0  0.5304794092102949  0.26705379827770387  0.2928744797022097  1.0000
  H   H55       1.0  0.5304794092302954  0.23294620261608678  0.7928744796163347  1.0000
  H   H56       1.0  0.4695205905880202  0.7329462017494185  0.707125520729284  1.0000
  H   H57       1.0  0.3887118384082462  0.541201003074168  0.0782358140719281  1.0000
  H   H58       1.0  0.6112881617724992  0.04120100218037723  0.42176418575184754  1.0000
  H   H59       1.0  0.6112881617924997  0.45879899695295456  0.9217641856659726  1.0000
  H   H60       1.0  0.38871183791946995  0.9587989978467452  0.57823581397223  1.0000
  H   H61       1.0  0.3249784794576293  0.30739880196006736  0.17453315189253632  1.0000
  H   H62       1.0  0.6750215207231162  0.807398802853858  0.32546684793123937  1.0000
  H   H63       1.0  0.6750215203406857  0.6926011980670551  0.8254668485389572  1.0000
  H   H64       1.0  0.32497847947762964  0.1926011971732644  0.6745331518066613  1.0000
  H   H65       1.0  0.5431106080705644  0.9886447953611167  0.11750823337494493  1.0000
  H   H66       1.0  0.4568893916014044  0.488644794467326  0.3824917664350076  1.0000
  H   H67       1.0  0.45688939172775067  0.011355204666005751  0.8824917670565486  1.0000
  H   H68       1.0  0.5431106080905649  0.5113552055597964  0.61750823328907  1.0000
  C   C1        1.0  0.3110889480990925  0.7802526285856852  0.3624846438481862  1.0000
  C   C2        1.0  0.6889110520816529  0.2802526276918945  0.13751535597558945  1.0000
  C   C3        1.0  0.6889110521016534  0.21974737144143722  0.6375153558897144  1.0000
  C   C4        1.0  0.31108894811909277  0.719747372335228  0.8624846437623113  1.0000
  C   C5        1.0  0.23694886344861943  0.9184382662244899  0.49794825432142037  1.0000
  C   C6        1.0  0.763051136732126  0.4184382653306992  0.0020517455023553086  1.0000
  C   C7        1.0  0.7630511367521263  0.08156173380263256  0.5020517454164803  1.0000
  C   C8        1.0  0.23694886346861976  0.5815617346964232  0.9979482542355453  1.0000
  C   C9        1.0  0.30795832485012603  0.6326198631901723  0.43931566136292344  1.0000
  C   C10       1.0  0.6920416749281887  0.13261986229638165  0.06068433915444518  1.0000
  C   C11       1.0  0.692041674948189  0.3673801368369501  0.5606843390685702  1.0000
  C   C12       1.0  0.3079583248701264  0.8673801377307407  0.9393156612770485  1.0000
  C   C13       1.0  0.27659428836512184  0.9985161092128351  0.3545116335008574  1.0000
  C   C14       1.0  0.7234057113068469  0.49851611007950336  0.14548836630909512  1.0000
  C   C15       1.0  0.7234057114331933  0.0014838908142872965  0.6454883669306363  1.0000
  C   C16       1.0  0.2765942883851221  0.501483889947619  0.8545116334149825  1.0000
  C   C17       1.0  0.23966306067848972  0.06623694780320576  0.42182460976271124  1.0000
  C   C18       1.0  0.7603369389934791  0.5662369486969965  0.07817539004724126  1.0000
  C   C19       1.0  0.7603369390134794  0.9337630522239166  0.5781753899613663  1.0000
  C   C20       1.0  0.23966306069849005  0.433763051330126  0.9218246096768363  1.0000
  C   C21       1.0  0.27080424042200646  0.7005854249610464  0.5061332170900806  1.0000
  C   C22       1.0  0.729195759289963  0.2005854258277147  0.993866782548122  1.0000
  C   C23       1.0  0.7291957592699627  0.299414575066076  0.4938667826339969  1.0000
  C   C24       1.0  0.27080424091078276  0.7994145741994078  0.006133217189778745  1.0000
  C   C25       1.0  0.05772216635629239  0.1046286730333275  0.9170914659341455  1.0000
  C   C26       1.0  0.9422778333556772  0.6046286739271182  0.5829085337040572  1.0000
  C   C27       1.0  0.9422778333356768  0.895371326993795  0.08290853378993211  1.0000
  C   C28       1.0  0.057722166336292034  0.39537132610000425  0.41709146602002045  1.0000
  C   C29       1.0  0.043443506403234716  0.29599986925522415  0.8550754265011187  1.0000
  C   C30       1.0  0.9565564933087348  0.7959998701490149  0.644924573137084  1.0000
  C   C31       1.0  0.9565564932887344  0.7040001307718983  0.14492457322295882  1.0000
  C   C32       1.0  0.043443506383234395  0.2040001298781076  0.35507542658699376  1.0000
  C   C33       1.0  0.09829399402361258  0.9226359590210278  0.8929129695629778  1.0000
  C   C34       1.0  0.9017060056883569  0.4226359581272372  0.6070870300752248  1.0000
  C   C35       1.0  0.9017060056683565  0.07736404100609456  0.10708703016109966  1.0000
  C   C36       1.0  0.09829399400361225  0.5773640418998852  0.39291296964885286  1.0000
  C   C37       1.0  0.12218664970697862  0.9380558502920886  0.8099194217165672  1.0000
  C   C38       1.0  0.8778133506201136  0.43805585115875684  0.6900805786428746  1.0000
  C   C39       1.0  0.8778133506001131  0.061944149735033836  0.1900805787287496  1.0000
  C   C40       1.0  0.12218664958063231  0.5619441488683656  0.3099194210950261  1.0000
  C   C41       1.0  0.06966224214410574  0.2972720314370005  0.7734004503664574  1.0000
  C   C42       1.0  0.9303377576742097  0.7972720305703322  0.7265995499791611  1.0000
  C   C43       1.0  0.9303377576542095  0.702727968590122  0.22659955006503618  1.0000
  C   C44       1.0  0.0696622421241054  0.2027279694567902  0.27340045045233236  1.0000
  C   C45       1.0  0.03003967698018362  0.08911832410215226  0.005302489229558624  1.0000
  C   C46       1.0  0.9699603232005618  0.5891183232354841  0.494697510594217  1.0000
  C   C47       1.0  0.9699603232205622  0.9108816759249702  0.9946975105083421  1.0000
  C   C48       1.0  0.030039677000183968  0.41088167679163845  0.5053024891436837  1.0000
  C   C49       1.0  0.4537074292993227  0.9401973499690311  0.1775265533730539  1.0000
  C   C50       1.0  0.5462925709877687  0.4401973490752405  0.32247344715813786  1.0000
  C   C51       1.0  0.546292571007769  0.05980265005809126  0.8224734470722629  1.0000
  C   C52       1.0  0.453707429319323  0.559802650951882  0.6775265532871789  1.0000
  C   C53       1.0  0.3731393265352723  0.2394621539663125  0.15945522982117974  1.0000
  C   C54       1.0  0.6268606731366966  0.7394621548601032  0.3405447699887728  1.0000
  C   C55       1.0  0.6268606731566969  0.7605378460608099  0.840544769902898  1.0000
  C   C56       1.0  0.37313932655527265  0.2605378451670192  0.6594552297353047  1.0000
  C   C57       1.0  0.47287022868902223  0.28580814131933774  0.09021528461197763  1.0000
  C   C58       1.0  0.5271297709829467  0.7858081422131284  0.4097847151979749  1.0000
  C   C59       1.0  0.527129771002947  0.7141918587077848  0.9097847151120999  1.0000
  C   C60       1.0  0.4728702287090225  0.214191857813994  0.5902152845261027  1.0000
  C   C61       1.0  0.49395838318770546  0.06206193323833184  0.12624687664920348  1.0000
  C   C62       1.0  0.5060416164842634  0.5620619341321225  0.37375312316074905  1.0000
  C   C63       1.0  0.5060416165042637  0.9379380667887905  0.873753123074874  1.0000
  C   C64       1.0  0.49395838320770574  0.4379380658949999  0.6262468765633287  1.0000
  C   C65       1.0  0.4098571389773826  0.371673070460458  0.10592197503048799  1.0000
  C   C66       1.0  0.5901428612033628  0.8716730695937898  0.3940780247932877  1.0000
  C   C67       1.0  0.5901428612233632  0.6283269295666644  0.8940780247074127  1.0000
  C   C68       1.0  0.4098571389973829  0.12832693043333265  0.605921974944613  1.0000
  C   C69       1.0  0.5192610376920237  0.42631481023461165  0.041704679197662645  1.0000
  C   C70       1.0  0.48073896248872183  0.9263148111284024  0.458295320626113  1.0000
  C   C71       1.0  0.48073896261506815  0.5736851897925107  0.958295321247654  1.0000
  C   C72       1.0  0.5192610372032473  0.0736851888987201  0.5417046790979645  1.0000
  N   N1        1.0  0.10819629831515555  0.12157767954758551  0.750190386811206  1.0000
  N   N2        1.0  0.89180370150316  0.6215776786809173  0.7498096135344128  1.0000
  N   N3        1.0  0.8918037013768136  0.8784223204795369  0.24980961291287154  1.0000
  N   N4        1.0  0.10819629829515522  0.3784223213462051  0.25019038689708095  1.0000
  N   N5        1.0  0.39449068865472137  0.027067376127411773  0.1953526393494708  1.0000
  N   N6        1.0  0.6055093110172475  0.5270673770212024  0.3046473604604817  1.0000
  N   N7        1.0  0.6055093110372478  0.9729326238997107  0.8046473603746067  1.0000
  N   N8        1.0  0.39449068867472176  0.47293262300592  0.6953526392635959  1.0000
  O   O1        1.0  0.34744976307914777  0.7048816788100565  0.2993142737651116  1.0000
  O   O2        1.0  0.6525502365928211  0.2048816779162658  0.20068572604484097  1.0000
  O   O3        1.0  0.6525502366128213  0.295118321217066  0.7006857259589659  1.0000
  O   O4        1.0  0.3474497630991481  0.7951183221108566  0.7993142736792366  1.0000
  I   I1        1.0  0.18079721539821766  0.022527772282969597  0.5999580412650002  1.0000
  I   I2        1.0  0.8192027843137519  0.5225277714163014  0.9000419583732024  1.0000
  I   I3        1.0  0.8192027842937515  0.9774722277441528  0.40004195845907736  1.0000
  I   I4        1.0  0.18079721537821736  0.47747222861082106  0.09995804135087516  1.0000
