data_image0
_chemical_formula_structural       H18C24N2O2I2
_chemical_formula_sum              "H18 C24 N2 O2 I2"
_cell_length_a       4.183952862025517
_cell_length_b       9.319962129863281
_cell_length_c       13.934555557648709
_cell_angle_alpha    76.24678336323856
_cell_angle_beta     89.09327628381052
_cell_angle_gamma    79.79958720351951

_space_group_name_H-M_alt    "P 1"
_space_group_IT_number       1

loop_
  _space_group_symop_operation_xyz
  'x, y, z'

loop_
  _atom_site_type_symbol
  _atom_site_label
  _atom_site_symmetry_multiplicity
  _atom_site_fract_x
  _atom_site_fract_y
  _atom_site_fract_z
  _atom_site_occupancy
  H   H1        1.0  0.6288931434060375  0.22336110321410635  0.6230359185625228  1.0000
  H   H2        1.0  0.3711068582426632  0.7766388963154209  0.37696408162844913  1.0000
  H   H3        1.0  0.721816327688634  0.4892477737510972  0.763554425085951  1.0000
  H   H4        1.0  0.27818367157143553  0.5107522257750186  0.2364455751033986  1.0000
  H   H5        1.0  0.3865797667088108  0.08171264979526838  0.7549579867911413  1.0000
  H   H6        1.0  0.6134202345014902  0.9182873508226023  0.2450420134048524  1.0000
  H   H7        1.0  0.19324672657323794  0.0588719088188927  0.9252699688833962  1.0000
  H   H8        1.0  0.8067532721839181  0.9411280920710008  0.07473003057189127  1.0000
  H   H9        1.0  0.5223166456234337  0.47066441720040875  0.9327334449684823  1.0000
  H   H10       1.0  0.4776833535721219  0.5293355826011413  0.06726655448178331  1.0000
  H   H11       1.0  0.9852168379843164  0.9723032679604845  0.7046893092316918  1.0000
  H   H12       1.0  0.014783161275753229  0.02769673156563156  0.29531069095765755  1.0000
  H   H13       1.0  0.28022779233566253  0.7082540113548885  0.7388047202149318  1.0000
  H   H14       1.0  0.7197722093130383  0.29174598817463876  0.26119527997604014  1.0000
  H   H15       1.0  0.21679198924859033  0.3689153466660338  0.5082624746055694  1.0000
  H   H16       1.0  0.7832080095730797  0.6310846539484255  0.49173752558880185  1.0000
  H   H17       1.0  0.8226340421268306  0.4616397692446387  0.3658328302633219  1.0000
  H   H18       1.0  0.17736595669483943  0.5383602313698206  0.6341671699310494  1.0000
  C   C1        1.0  0.34399882608113436  0.2635131965510252  0.9401040953611896  1.0000
  C   C2        1.0  0.6560011731144211  0.736486803250525  0.059895904089076135  1.0000
  C   C3        1.0  0.5995659241211418  0.39702959709772623  0.7986374170655832  1.0000
  C   C4        1.0  0.40043407513892776  0.6029704024283897  0.2013625831237662  1.0000
  C   C5        1.0  0.41611234532933267  0.16704069320969409  0.7939186078169278  1.0000
  C   C6        1.0  0.5838876534923373  0.8329593074047651  0.20608139237744347  1.0000
  C   C7        1.0  0.30748597771259556  0.15393027884989763  0.8902695216689318  1.0000
  C   C8        1.0  0.6925140234977056  0.846069721767973  0.10973047852706203  1.0000
  C   C9        1.0  0.4897963072696851  0.3850336358268839  0.8944894084342766  1.0000
  C   C10       1.0  0.5102036915519849  0.6149663647875755  0.10551059176009463  1.0000
  C   C11       1.0  0.5625243508333934  0.28873641627570173  0.7469808619399709  1.0000
  C   C12       1.0  0.43747564798827654  0.7112635843387575  0.2530191382544003  1.0000
  C   C13       1.0  0.7145134802362075  0.9530030003180017  0.5784153244042674  1.0000
  C   C14       1.0  0.28548652097409377  0.04699700029986902  0.42158467579172637  1.0000
  C   C15       1.0  0.3417702422750601  0.145485351692921  0.48311676563760086  1.0000
  C   C16       1.0  0.6582297569204955  0.854514648108629  0.5168832338126648  1.0000
  C   C17       1.0  0.9427939094030527  0.8970073849775887  0.6590471106592742  1.0000
  C   C18       1.0  0.05720609218113402  0.10299261482737279  0.34095288879261404  1.0000
  C   C19       1.0  0.1035521443331303  0.7508681232229988  0.6775379868769311  1.0000
  C   C20       1.0  0.8964478544885397  0.24913187739146045  0.3224620133174401  1.0000
  C   C21       1.0  0.1709916562132205  0.29617514800595285  0.4613583490704834  1.0000
  C   C22       1.0  0.8290083430468489  0.7038248515201632  0.5386416511188661  1.0000
  C   C23       1.0  0.954338705162494  0.34650485314663065  0.3825593494065224  1.0000
  C   C24       1.0  0.04566129604780718  0.6534951474712399  0.6174406507894714  1.0000
  N   N1        1.0  0.5554858973204222  0.09575866246137299  0.5599566328682833  1.0000
  N   N2        1.0  0.4445141015012478  0.9042413381530863  0.44004336732608795  1.0000
  O   O1        1.0  0.6717626489654448  0.3070617956835906  0.6531024670193023  1.0000
  O   O2        1.0  0.32823735224485634  0.6929382049342802  0.3468975331766915  1.0000
  I   I1        1.0  0.17583004699907237  0.24727453876876687  0.08463920893775136  1.0000
  I   I2        1.0  0.8241699522609972  0.7527254607573488  0.9153607912515981  1.0000
