data_image0
_chemical_formula_structural       H118C96N6I6
_chemical_formula_sum              "H118 C96 N6 I6"
_cell_length_a       10.07921832722741
_cell_length_b       11.623841357087414
_cell_length_c       18.92238960470095
_cell_angle_alpha    88.34261033169449
_cell_angle_beta     83.70747227716492
_cell_angle_gamma    84.9071504552907

_space_group_name_H-M_alt    "P 1"
_space_group_IT_number       1

loop_
  _space_group_symop_operation_xyz
  'x, y, z'

loop_
  _atom_site_type_symbol
  _atom_site_label
  _atom_site_symmetry_multiplicity
  _atom_site_fract_x
  _atom_site_fract_y
  _atom_site_fract_z
  _atom_site_occupancy
  H   H1        1.0  0.5324301070969255  0.015004866191693025  0.21142169432380897  1.0000
  H   H2        1.0  0.4675698925858222  0.9849951339860501  0.7885783056747905  1.0000
  H   H3        1.0  0.37458667132739826  0.1552605054011353  0.021680914386039692  1.0000
  H   H4        1.0  0.6254133283553495  0.844739494776608  0.9783190856125598  1.0000
  H   H5        1.0  0.5732617700518622  0.5295954717575093  0.16045126099432658  1.0000
  H   H6        1.0  0.42673822963088576  0.4704045284202338  0.8395487390042728  1.0000
  H   H7        1.0  0.7203275042328425  0.5352126558900793  0.20367718723451123  1.0000
  H   H8        1.0  0.27967249644210773  0.4647873442868744  0.7963228127641772  1.0000
  H   H9        1.0  0.5727633835526614  0.6234200334947761  0.23311883339892428  1.0000
  H   H10       1.0  0.4272366161300862  0.37657996668296706  0.7668811665996752  1.0000
  H   H11       1.0  0.8463866793736013  0.19709405316271833  0.9584250524560931  1.0000
  H   H12       1.0  0.1536133203091464  0.8029059470150249  0.04157494754250637  1.0000
  H   H13       1.0  0.06088289295823649  0.43378691923224316  0.06161040152453711  1.0000
  H   H14       1.0  0.9391171068123949  0.5662130800818517  0.938389598472256  1.0000
  H   H15       1.0  0.4920427403915673  0.241937257084976  0.35820250015060223  1.0000
  H   H16       1.0  0.5079572592911804  0.7580627430927673  0.6417974998479972  1.0000
  H   H17       1.0  0.3546922060394764  0.41504451125783975  0.31394070469195046  1.0000
  H   H18       1.0  0.6453077947233575  0.5849554880554656  0.6860592953049315  1.0000
  H   H19       1.0  0.3580570489730592  0.5330288305014657  0.25081746291287016  1.0000
  H   H20       1.0  0.641942951701891  0.4669711696754881  0.7491825370858183  1.0000
  H   H21       1.0  0.9153094189314975  0.24144219038699144  0.20918773408244268  1.0000
  H   H22       1.0  0.08469058075125016  0.7585578097907517  0.7908122659161567  1.0000
  H   H23       1.0  0.5437977127826626  0.4227287336423592  0.3809209116108406  1.0000
  H   H24       1.0  0.45620228690008496  0.5772712665353841  0.6190790883877589  1.0000
  H   H25       1.0  0.6463832466566917  0.5336061137202462  0.3491570303571517  1.0000
  H   H26       1.0  0.35361675302605616  0.46639388645749696  0.6508429696414478  1.0000
  H   H27       1.0  0.7682554354012858  0.8147990437523794  0.3058955898355246  1.0000
  H   H28       1.0  0.23174456436934543  0.1852009555617154  0.6941044101612686  1.0000
  H   H29       1.0  0.5875326491244754  0.38335077736203294  0.07378133890250356  1.0000
  H   H30       1.0  0.412467350646156  0.6166492219520618  0.9262186610942895  1.0000
  H   H31       1.0  0.1428627613528862  0.47837926395085006  0.17576574375411125  1.0000
  H   H32       1.0  0.8571372383298614  0.521620736226893  0.8242342562444882  1.0000
  H   H33       1.0  0.945965641486267  0.921035846002409  0.241652388661399  1.0000
  H   H34       1.0  0.05403435918868324  0.07896415417454493  0.7583476113372893  1.0000
  H   H35       1.0  0.3829116003121942  0.9376798367708196  0.09073129405005115  1.0000
  H   H36       1.0  0.6170883993705536  0.06232016340692359  0.9092687059485484  1.0000
  H   H37       1.0  0.3341246040387157  0.06028112639483945  0.1441150533754862  1.0000
  H   H38       1.0  0.6658753956440321  0.9397188737829036  0.8558849466231132  1.0000
  H   H39       1.0  0.3311125527637791  0.9198513932660632  0.18263150539834339  1.0000
  H   H40       1.0  0.6688874470068522  0.08014860604803148  0.8173684945984497  1.0000
  H   H41       1.0  0.5594031315267828  0.9198686724172843  0.3609199062764878  1.0000
  H   H42       1.0  0.440596868155965  0.08013132776045881  0.6390800937221116  1.0000
  H   H43       1.0  0.7414851870609197  0.8833172704342002  0.0656556844307979  1.0000
  H   H44       1.0  0.25851481361403045  0.11668272974275355  0.9343443155678905  1.0000
  H   H45       1.0  0.6911583272828982  0.8349971818005499  0.18015402213227533  1.0000
  H   H46       1.0  0.3088416723998494  0.16500281837719327  0.8198459778663241  1.0000
  H   H47       1.0  0.5723333142172659  0.7938753797453687  0.12496364585224685  1.0000
  H   H48       1.0  0.42766668654556794  0.20612461956793657  0.875036354144635  1.0000
  H   H49       1.0  0.5263324243699139  0.8099098066037616  0.2176514172699155  1.0000
  H   H50       1.0  0.47366757540071763  0.19009019271033317  0.7823485827268777  1.0000
  H   H51       1.0  0.8778274422699268  0.9840522253930737  0.9736613651208437  1.0000
  H   H52       1.0  0.12217255840502354  0.01594777478388001  0.026338634877844627  1.0000
  H   H53       1.0  0.8806455976167031  0.3737628210737459  0.01023439444803083  1.0000
  H   H54       1.0  0.11935440305824714  0.6262371791032079  0.9897656055506574  1.0000
  H   H55       1.0  0.8252823729038986  0.37591421779301176  0.10251300897948494  1.0000
  H   H56       1.0  0.17471762677884914  0.6240857823847314  0.8974869910191147  1.0000
  H   H57       1.0  0.7818470033470124  0.4965675962681269  0.046962615761720485  1.0000
  H   H58       1.0  0.21815299633573532  0.5034324039096163  0.9530373842368789  1.0000
  H   H59       1.0  0.865065487659659  0.44066218068895374  0.2450934780627955  1.0000
  H   H60       1.0  0.13493451301529147  0.559337819488  0.7549065219358928  1.0000
  H   H61       1.0  0.95692338155565  0.348413358910188  0.3022153802789201  1.0000
  H   H62       1.0  0.04307661812709776  0.6515866412675552  0.6977846197196794  1.0000
  H   H63       1.0  0.8824195751035164  0.4850841397079198  0.33211741483630464  1.0000
  H   H64       1.0  0.11758042457923143  0.5149158604698234  0.6678825851622948  1.0000
  H   H65       1.0  0.8460761748622613  0.23100911910367533  0.39738103579470724  1.0000
  H   H66       1.0  0.15392382482048644  0.7689908810740678  0.6026189642038922  1.0000
  H   H67       1.0  0.6734161808545133  0.2613591428024617  0.4282269317221975  1.0000
  H   H68       1.0  0.3265838188282345  0.7386408573752816  0.571773068276402  1.0000
  H   H69       1.0  0.7886075046872637  0.36445681324333074  0.4384114678659123  1.0000
  H   H70       1.0  0.2113924950833677  0.6355431860707641  0.5615885321308808  1.0000
  H   H71       1.0  0.35229649967703497  0.02615649085470716  0.3306785508994945  1.0000
  H   H72       1.0  0.6477035000057128  0.973843509323036  0.669321449099105  1.0000
  H   H73       1.0  0.37208425625350683  0.14333613394998093  0.26968169805159325  1.0000
  H   H74       1.0  0.6279157445093271  0.8566638653633244  0.7303183019452888  1.0000
  H   H75       1.0  0.27351818285675306  0.164960270139144  0.35295072890230056  1.0000
  H   H76       1.0  0.7264818169138784  0.8350397291749507  0.6470492710944926  1.0000
  H   H77       1.0  0.5346119703822615  0.3477063960672384  0.9516795725471063  1.0000
  H   H78       1.0  0.4653880302926888  0.6522936041097153  0.04832042745158206  1.0000
  H   H79       1.0  0.7066043726128621  0.3540587266117649  0.9187928930830264  1.0000
  H   H80       1.0  0.2933956280620881  0.6459412735651888  0.0812071069156621  1.0000
  H   H81       1.0  0.6134423232190281  0.47836305816201113  0.9565419854802579  1.0000
  H   H82       1.0  0.38655767745592207  0.5216369420149426  0.04345801451843032  1.0000
  H   H83       1.0  0.11914378912860561  0.0547798947956412  0.26097215705533783  1.0000
  H   H84       1.0  0.8808562115463446  0.9452201053813126  0.7390278429433504  1.0000
  H   H85       1.0  0.049603089742965206  0.17405472775117142  0.31276649515789656  1.0000
  H   H86       1.0  0.9503969099397825  0.8259452724265719  0.6872335048407029  1.0000
  H   H87       1.0  0.14969611362691587  0.19687828481982136  0.23073714997888975  1.0000
  H   H88       1.0  0.8503038860558321  0.8031217153579219  0.7692628500197096  1.0000
  H   H89       1.0  0.9029193221878417  0.10195523644534248  0.11244920989676828  1.0000
  H   H90       1.0  0.0970806784871087  0.8980447637316112  0.8875507901019201  1.0000
  H   H91       1.0  0.031194664694651056  0.009053841042560505  0.1464331699309527  1.0000
  H   H92       1.0  0.9688053349880965  0.9909461591351827  0.8535668300676468  1.0000
  H   H93       1.0  0.06520112431033845  0.1492902963085062  0.11244051709113802  1.0000
  H   H94       1.0  0.9347988763646118  0.8507097038684476  0.8875594829075503  1.0000
  H   H95       1.0  0.5497092801211814  0.13234198546778386  0.4698393185283117  1.0000
  H   H96       1.0  0.45029072055376884  0.8676580147091698  0.5301606814703766  1.0000
  H   H97       1.0  0.4501108466324757  0.023050266702419483  0.44783108878251165  1.0000
  H   H98       1.0  0.549889153050272  0.9769497334753238  0.5521689112160878  1.0000
  H   H99       1.0  0.3745905934735895  0.1637017355548154  0.46625804165217116  1.0000
  H   H100      1.0  0.6254094062091582  0.8362982646229277  0.5337419583464282  1.0000
  H   H101      1.0  0.23441413163999816  0.9166064211840932  0.4699075263025596  1.0000
  H   H102      1.0  0.7655858680427496  0.08339357899364999  0.5300924736960398  1.0000
  H   H103      1.0  0.9206518002319385  0.06300917367683881  0.6232861273183461  1.0000
  H   H104      1.0  0.0793481994508093  0.9369908265009045  0.37671387268025336  1.0000
  H   H105      1.0  0.15617178318116134  0.9800328705894328  0.5932816386901052  1.0000
  H   H106      1.0  0.8438282165015863  0.01996712958831056  0.4067183613084942  1.0000
  H   H107      1.0  0.2760903407385747  0.5163213881852946  0.41728078773025634  1.0000
  H   H108      1.0  0.7239096590320566  0.48367861112880023  0.5827192122665368  1.0000
  H   H109      1.0  0.05953493341958779  0.43345707003534917  0.4083376218936255  1.0000
  H   H110      1.0  0.9404650663510435  0.5665429292787456  0.5916623781031676  1.0000
  H   H111      1.0  0.9820942256655636  0.2821876179891559  0.4964353963204418  1.0000
  H   H112      1.0  0.01790577410506779  0.7178123813249389  0.5035646036763513  1.0000
  H   H113      1.0  0.12051822500036836  0.21582330649309397  0.591752947445074  1.0000
  H   H114      1.0  0.8794817746823794  0.7841766936846493  0.4082470525535255  1.0000
  H   H115      1.0  0.3416365105766336  0.29417790912722813  0.5985212728113264  1.0000
  H   H116      1.0  0.6583634891061142  0.705822091050515  0.4014787271872731  1.0000
  H   H117      1.0  0.41885579206012385  0.44341667413647756  0.5111962062635212  1.0000
  H   H118      1.0  0.5811442086148264  0.5565833260404761  0.4888037937351671  1.0000
  C   C1        1.0  0.6081739229614203  0.15751527878971375  0.09644802456069868  1.0000
  C   C2        1.0  0.39182607680921117  0.8424847205243811  0.9035519754360944  1.0000
  C   C3        1.0  0.8392851763408348  0.08907601397809115  0.2571417276129835  1.0000
  C   C4        1.0  0.16071482433411544  0.9109239861988626  0.7428582723857049  1.0000
  C   C5        1.0  0.7190395959326396  0.1473166773819793  0.28735803015019573  1.0000
  C   C6        1.0  0.28096040383799187  0.8526833219321156  0.7126419698465974  1.0000
  C   C7        1.0  0.3838893748976814  0.2658687994806024  0.11046831723370588  1.0000
  C   C8        1.0  0.6161106247850663  0.7341312006971408  0.8895316827648936  1.0000
  C   C9        1.0  0.5328731601795001  0.9716716344107021  0.16044807454946114  1.0000
  C   C10       1.0  0.46712683950324757  0.02832836576704109  0.8395519254491384  1.0000
  C   C11       1.0  0.5138139988708833  0.29161608070079204  0.19631524387076635  1.0000
  C   C12       1.0  0.4861860018040669  0.7083839194761616  0.803684756127922  1.0000
  C   C13       1.0  0.5600011008639805  0.4461157962313639  0.2658472234642985  1.0000
  C   C14       1.0  0.4399988998988535  0.5538842030819415  0.7341527765325835  1.0000
  C   C15       1.0  0.6213826757071234  0.03621417952513006  0.10535257909066272  1.0000
  C   C16       1.0  0.37861732397562425  0.9637858206526132  0.8946474209079368  1.0000
  C   C17       1.0  0.32725379930112053  0.23031149430946443  0.05104121552730758  1.0000
  C   C18       1.0  0.6727462013738298  0.7696885058674895  0.9489587844713807  1.0000
  C   C19       1.0  0.6164835681564484  0.08865013372737736  0.32650815541332734  1.0000
  C   C20       1.0  0.38351643260638557  0.911349865585928  0.6734918445835546  1.0000
  C   C21       1.0  0.7407154839608313  0.35755133020679025  0.33175350495809564  1.0000
  C   C22       1.0  0.25928451580980005  0.6424486691073046  0.6682464950386976  1.0000
  C   C23       1.0  0.6043666049143185  0.3230533011436892  0.24297763574156053  1.0000
  C   C24       1.0  0.39563339476842935  0.676946699034054  0.757022364257039  1.0000
  C   C25       1.0  0.6109267222711432  0.5383977562318005  0.21216456289167135  1.0000
  C   C26       1.0  0.3890732774116046  0.4616022439459427  0.7878354371069282  1.0000
  C   C27       1.0  0.20374751619589326  0.2846831137378994  0.038410754457341316  1.0000
  C   C28       1.0  0.796252483574738  0.7153168855761954  0.9615892455394518  1.0000
  C   C29       1.0  0.7830204676050552  0.15324995252470516  0.9992729660750556  1.0000
  C   C30       1.0  0.2169795320776926  0.846750047653038  0.0007270339235439583  1.0000
  C   C31       1.0  0.3163394640452768  0.35335494215194  0.15585443425843282  1.0000
  C   C32       1.0  0.6836605366296734  0.6466450580250137  0.8441455657402555  1.0000
  C   C33       1.0  0.14599370133605452  0.3796344855644211  0.07885781166566237  1.0000
  C   C34       1.0  0.8540062983466933  0.620365514613322  0.921142188332937  1.0000
  C   C35       1.0  0.6859614760275269  0.21800559892047325  0.04393579327089435  1.0000
  C   C36       1.0  0.3140385236552209  0.7819944012572699  0.9560642067277052  1.0000
  C   C37       1.0  0.4867728513329052  0.14793092568627414  0.36202898082794727  1.0000
  C   C38       1.0  0.5132271483498425  0.8520690744914691  0.6379710191706522  1.0000
  C   C39       1.0  0.40582800016134535  0.4479837782083865  0.2640791888977174  1.0000
  C   C40       1.0  0.5941720006014886  0.5520162211049189  0.7359208110991646  1.0000
  C   C41       1.0  0.9510435321851418  0.15017331702866754  0.21645604841032  1.0000
  C   C42       1.0  0.04895646848980853  0.8498266831482861  0.7835439515883683  1.0000
  C   C43       1.0  0.6174654522731893  0.4483026102796172  0.33741396446650124  1.0000
  C   C44       1.0  0.3825345474095585  0.551697389898126  0.6625860355320982  1.0000
  C   C45       1.0  0.7547559480494209  0.90881424704155  0.30204623768550387  1.0000
  C   C46       1.0  0.24524405163332685  0.09118575313619312  0.6979537623130956  1.0000
  C   C47       1.0  0.6689371551616019  0.34835992654382936  0.034776547235336505  1.0000
  C   C48       1.0  0.33106284452114576  0.6516400736339137  0.9652234527632629  1.0000
  C   C49       1.0  0.19323355510582504  0.40939090683980567  0.14219645675026865  1.0000
  C   C50       1.0  0.8067664445769227  0.5906090933379375  0.8578035432483309  1.0000
  C   C51       1.0  0.8547672527302035  0.9688098439317542  0.2652736800120887  1.0000
  C   C52       1.0  0.1452327480326304  0.03119015538155123  0.7347263199847933  1.0000
  C   C53       1.0  0.3869908416669371  0.9738346889207443  0.14333010084797518  1.0000
  C   C54       1.0  0.6130091580158108  0.026165311256998825  0.8566698991506243  1.0000
  C   C55       1.0  0.6376280461561916  0.9681729319007085  0.3327332337572506  1.0000
  C   C56       1.0  0.36237195451875864  0.03182706827624523  0.6672667662414377  1.0000
  C   C57       1.0  0.7218957403571937  0.9765828392487791  0.06004437778340799  1.0000
  C   C58       1.0  0.2781042604056402  0.023417160064526245  0.9399556222134738  1.0000
  C   C59       1.0  0.5851801462488146  0.8455616022788714  0.17114645673028103  1.0000
  C   C60       1.0  0.4148198544261357  0.15443839789808228  0.8288535432684073  1.0000
  C   C61       1.0  0.8007029138625926  0.033907392225213516  0.007616871723863293  1.0000
  C   C62       1.0  0.1992970859080388  0.9660926070888814  0.9923831282729298  1.0000
  C   C63       1.0  0.7965979353688565  0.4018544837329998  0.049593997012586655  1.0000
  C   C64       1.0  0.20340206431389143  0.5981455164447433  0.9504060029860129  1.0000
  C   C65       1.0  0.8688641933121894  0.41030853425992125  0.30025946348896476  1.0000
  C   C66       1.0  0.131135806458442  0.5896914650541736  0.6997405365078283  1.0000
  C   C67       1.0  0.7630070099319914  0.2988846194282838  0.40279391938572306  1.0000
  C   C68       1.0  0.23699299083084263  0.7011153798850215  0.5972060806111589  1.0000
  C   C69       1.0  0.3645277887662644  0.11923151060861376  0.32632743438583356  1.0000
  C   C70       1.0  0.6354722109164833  0.8807684895691293  0.6736725656127659  1.0000
  C   C71       1.0  0.6282488770262737  0.38382172552801197  0.9608643002879661  1.0000
  C   C72       1.0  0.3717511237365601  0.6161782737852936  0.03913569970891585  1.0000
  C   C73       1.0  0.07383239151596577  0.14409215018506008  0.25796796237666253  1.0000
  C   C74       1.0  0.9261676092468681  0.8559078491282454  0.7420320376202194  1.0000
  C   C75       1.0  0.9896563017383804  0.09948600615131203  0.14264026979097075  1.0000
  C   C76       1.0  0.01034369902445359  0.9005139931619932  0.8573597302059114  1.0000
  C   C77       1.0  0.46479675876426946  0.11513066103324995  0.4411399460473305  1.0000
  C   C78       1.0  0.5352032409184783  0.8848693391444934  0.558860053951269  1.0000
  C   C79       1.0  0.13186116246230914  0.9536955752934314  0.483254950855403  1.0000
  C   C80       1.0  0.8681388383005249  0.04630442401987384  0.5167450491414789  1.0000
  C   C81       1.0  0.9554159639698109  0.034592564523322336  0.569437309240621  1.0000
  C   C82       1.0  0.04458403580082043  0.9654074347907724  0.4305626907561722  1.0000
  C   C83       1.0  0.08738586137880706  0.9881406314428823  0.5525551695745134  1.0000
  C   C84       1.0  0.9126141392961431  0.011859368734071432  0.44744483042417493  1.0000
  C   C85       1.0  0.2437543981235729  0.44794392611649236  0.45425801034163055  1.0000
  C   C86       1.0  0.7562456015591748  0.5520560740612509  0.5457419896569689  1.0000
  C   C87       1.0  0.12131779432736453  0.4021024293312263  0.44983316980387406  1.0000
  C   C88       1.0  0.8786822053553832  0.5978975708465168  0.5501668301947253  1.0000
  C   C89       1.0  0.07736445813226876  0.31842594033140537  0.4992528666734568  1.0000
  C   C90       1.0  0.9226355415504791  0.6815740598463379  0.5007471333251426  1.0000
  C   C91       1.0  0.15555853417596108  0.2808456868503534  0.5533723657783913  1.0000
  C   C92       1.0  0.8444414655067868  0.7191543133273899  0.4466276342202081  1.0000
  C   C93       1.0  0.2786255382569314  0.3253513402620122  0.5573782001189574  1.0000
  C   C94       1.0  0.7213744614258164  0.674648659915731  0.44262179987964206  1.0000
  C   C95       1.0  0.3227599170979035  0.40875124374009675  0.507730829978724  1.0000
  C   C96       1.0  0.6772400825848442  0.5912487564376464  0.49226917001987547  1.0000
  N   N1        1.0  0.5028587945092896  0.22610916025465458  0.13849006156228216  1.0000
  N   N2        1.0  0.49714120625354435  0.7738908390586507  0.8615099384345999  1.0000
  N   N3        1.0  0.6981132338877138  0.27139215325071675  0.2797740060841455  1.0000
  N   N4        1.0  0.30188676678723647  0.7286078469262369  0.7202259939145428  1.0000
  N   N5        1.0  0.4004644877101623  0.3671705566184188  0.20657089494895192  1.0000
  N   N6        1.0  0.5995355120604691  0.632829442695676  0.7934291050478413  1.0000
  I   I1        1.0  0.8516912568666037  0.2820115774714808  0.7473024748530109  1.0000
  I   I2        1.0  0.14830874380834672  0.7179884227054729  0.25269752514567734  1.0000
  I   I3        1.0  0.03833263543804443  0.30630262483343573  0.8524621252612712  1.0000
  I   I4        1.0  0.9616673642447033  0.6936973753443074  0.14753787473732838  1.0000
  I   I5        1.0  0.6464836667256912  0.2606370471096621  0.6433428525280727  1.0000
  I   I6        1.0  0.35351633304494  0.7393629522044326  0.3566571474687204  1.0000
