data_image0
_chemical_formula_structural       H144C72N4F16I12
_chemical_formula_sum              "H144 C72 N4 F16 I12"
_cell_length_a       8.142224276750678
_cell_length_b       13.21071988408638
_cell_length_c       23.418865989258414
_cell_angle_alpha    90.0
_cell_angle_beta     93.68898351884455
_cell_angle_gamma    90.0

_space_group_name_H-M_alt    "P 1"
_space_group_IT_number       1

loop_
  _space_group_symop_operation_xyz
  'x, y, z'

loop_
  _atom_site_type_symbol
  _atom_site_label
  _atom_site_symmetry_multiplicity
  _atom_site_fract_x
  _atom_site_fract_y
  _atom_site_fract_z
  _atom_site_occupancy
  H   H1        1.0  0.5623314054875809  0.27039429049608055  0.1467014883489835  1.0000
  H   H2        1.0  0.9376685955879862  0.7703942903414189  0.35329851171323895  1.0000
  H   H3        1.0  0.43766859544311526  0.7296057091945963  0.85329851189763  1.0000
  H   H4        1.0  0.06233140525954121  0.22960570934925792  0.646701488105484  1.0000
  H   H5        1.0  0.6685797191881404  0.15460408652372615  0.16041185497524127  1.0000
  H   H6        1.0  0.8314202806595243  0.6546040863690646  0.3395881450883693  1.0000
  H   H7        1.0  0.3314202804314848  0.8453959139239118  0.8395881448448699  1.0000
  H   H8        1.0  0.16857972027117168  0.34539591332161235  0.6604118551582442  1.0000
  H   H9        1.0  0.5055020756358867  0.06679456590877711  0.08432326581014288  1.0000
  H   H10       1.0  0.9944979242117781  0.5667945665110766  0.4156767342534677  1.0000
  H   H11       1.0  0.4944979239837386  0.9332054337818998  0.9156767340099682  1.0000
  H   H12       1.0  0.005502075491015595  0.4332054339365614  0.5843232659945339  1.0000
  H   H13       1.0  0.3675778088686345  0.16874132973520128  0.07440990465893539  1.0000
  H   H14       1.0  0.13242219028564273  0.6687413295805398  0.425590095037869  1.0000
  H   H15       1.0  0.6324221907509906  0.8312586707124366  0.9255900951611756  1.0000
  H   H16       1.0  0.8675778093339825  0.3312586708670982  0.5744099047822421  1.0000
  H   H17       1.0  0.731798467225418  0.1689608120969076  0.050556782721229224  1.0000
  H   H18       1.0  0.7682015326222468  0.6689608119422461  0.44944321734238135  1.0000
  H   H19       1.0  0.2682015324773757  0.8310391875937694  0.9494432175267723  1.0000
  H   H20       1.0  0.2317984669973784  0.3310391877484309  0.5505567824777298  1.0000
  H   H21       1.0  0.610297859834737  0.27922113801257864  0.04949610662356805  1.0000
  H   H22       1.0  0.8897021400129277  0.7792211378579171  0.4505038934400425  1.0000
  H   H23       1.0  0.38970213986805663  0.7207788616780983  0.9505038936244335  1.0000
  H   H24       1.0  0.1102978596066975  0.22077886183275983  0.5494961063800686  1.0000
  H   H25       1.0  0.5345369932827535  0.09352953819635472  0.972914721438221  1.0000
  H   H26       1.0  0.9654630055743175  0.5935295380416932  0.5270852785065849  1.0000
  H   H27       1.0  0.46546300642004024  0.9064704614943222  0.0270852788097806  1.0000
  H   H28       1.0  0.03453699404530775  0.4064704616489837  0.4729147213135262  1.0000
  H   H29       1.0  0.6261337963057878  0.20819902731517304  0.9512088945222587  1.0000
  H   H30       1.0  0.8738662037791854  0.7081990271605115  0.5487911054211592  1.0000
  H   H31       1.0  0.3738662033138374  0.7918009723755038  0.0487911052978524  1.0000
  H   H32       1.0  0.1261337958404398  0.2918009725301654  0.4512088943989519  1.0000
  H   H33       1.0  0.4201605812485024  0.20788783231322977  0.97174947664131  1.0000
  H   H34       1.0  0.07983941822625172  0.7078878321585682  0.528250523363192  1.0000
  H   H35       1.0  0.5798394184542912  0.7921121681344082  0.028250523606691544  1.0000
  H   H36       1.0  0.9201605813933734  0.29211216753210867  0.47174947645691906  1.0000
  H   H37       1.0  0.6387102275836073  0.11877202179497369  0.24764644947587314  1.0000
  H   H38       1.0  0.861289772180889  0.6187720223972731  0.25235355015984695  1.0000
  H   H39       1.0  0.361289772036018  0.8812279778957033  0.7523535503442379  1.0000
  H   H40       1.0  0.1387102274387362  0.38122797805036474  0.7476464496602642  1.0000
  H   H41       1.0  0.5904191981719299  0.25010049709554466  0.2495875251919245  1.0000
  H   H42       1.0  0.909580801675735  0.7501004969408832  0.25041247487168605  1.0000
  H   H43       1.0  0.4095808014476953  0.7498995025951323  0.7504124746281865  1.0000
  H   H44       1.0  0.09041919802705876  0.24989950274979378  0.7495875253763156  1.0000
  H   H45       1.0  0.3823211609846571  0.08436452591372745  0.3032451408848301  1.0000
  H   H46       1.0  0.1176788381696201  0.584364525759066  0.19675485881197424  1.0000
  H   H47       1.0  0.6176788386349682  0.9156354737769494  0.696754858935281  1.0000
  H   H48       1.0  0.8823211614500052  0.41563547393161104  0.8032451410081369  1.0000
  H   H49       1.0  0.3541270624010528  0.21658521300165137  0.3086211966522602  1.0000
  H   H50       1.0  0.14587293683639288  0.7165852128469898  0.19137880347243463  1.0000
  H   H51       1.0  0.645872937301741  0.7834147874459866  0.6913788035957414  1.0000
  H   H52       1.0  0.8541270627832324  0.2834147868436871  0.8086211963476764  1.0000
  H   H53       1.0  0.6403017496526502  0.23260147720651705  0.35516102026932506  1.0000
  H   H54       1.0  0.8596982514229169  0.7326014770518556  0.14483897979289745  1.0000
  H   H55       1.0  0.35969825127804594  0.7673985224841599  0.6448389799772885  1.0000
  H   H56       1.0  0.14030174942461054  0.2673985226388214  0.8551610200258255  1.0000
  H   H57       1.0  0.6603627793576928  0.09994919895247749  0.35386236226432244  1.0000
  H   H58       1.0  0.8396372204899719  0.5999491987978159  0.14613763779928815  1.0000
  H   H59       1.0  0.3396372214898347  0.9000508014951605  0.6461376375544006  1.0000
  H   H60       1.0  0.16036277921282174  0.400050801649822  0.8538623624487134  1.0000
  H   H61       1.0  0.40027790905131777  0.21952371448685526  0.4163671075718295  1.0000
  H   H62       1.0  0.0997220901029595  0.7195237143321938  0.08363289212497485  1.0000
  H   H63       1.0  0.5997220905683075  0.7804762852038217  0.5836328922482816  1.0000
  H   H64       1.0  0.9002779095166658  0.28047628535848323  0.9163671076951362  1.0000
  H   H65       1.0  0.5741978136350748  0.15679987829393413  0.44928128665039185  1.0000
  H   H66       1.0  0.9258021874404923  0.6567998781392727  0.050718713411830665  1.0000
  H   H67       1.0  0.4258021872124527  0.8432001221537038  0.5507187131683312  1.0000
  H   H68       1.0  0.07419781349020374  0.34320012155140434  0.9492812868347827  1.0000
  H   H69       1.0  0.4121013513875702  0.08567554833733233  0.4145693477419375  1.0000
  H   H70       1.0  0.08789864776670703  0.5856755481826708  0.08543065195486677  1.0000
  H   H71       1.0  0.5878986482320551  0.9143244521103057  0.5854306520781736  1.0000
  H   H72       1.0  0.9121013518529183  0.4143244515080062  0.9145693478652444  1.0000
  H   H73       1.0  0.2912489615401832  0.0606939967719595  0.14415330733411666  1.0000
  H   H74       1.0  0.20875103769726253  0.5606939966172979  0.3558466927905781  1.0000
  H   H75       1.0  0.7087510381626105  0.9393060029187175  0.855846692913885  1.0000
  H   H76       1.0  0.7912489619223626  0.43930600307337897  0.6441533070295329  1.0000
  H   H77       1.0  0.26353950356077926  0.054756414211111444  0.21785482933763017  1.0000
  H   H78       1.0  0.23646049682140022  0.5547564140564499  0.28214517035778613  1.0000
  H   H79       1.0  0.7364604972867482  0.9452435854795656  0.7821451704810928  1.0000
  H   H80       1.0  0.763539502798225  0.445243585634227  0.7178548294623249  1.0000
  H   H81       1.0  0.5798586126962572  0.9838724561601653  0.16396901284106252  1.0000
  H   H82       1.0  0.9201413871514077  0.48387245555786573  0.33603098722254804  1.0000
  H   H83       1.0  0.4201413870065366  0.01612754428747275  0.836030987406939  1.0000
  H   H84       1.0  0.07985861369611985  0.5161275441328113  0.663969012596175  1.0000
  H   H85       1.0  0.5343866211866162  0.9674460712315587  0.23561356397943412  1.0000
  H   H86       1.0  0.9656133786610486  0.46744607138622013  0.26438643608417645  1.0000
  H   H87       1.0  0.4656133784330091  0.03255392845911833  0.7643864358406769  1.0000
  H   H88       1.0  0.0343866222696473  0.5325539283044568  0.735613564162437  1.0000
  H   H89       1.0  0.3306158881012461  0.8794797014805912  0.13259194149641368  1.0000
  H   H90       1.0  0.16938411236410192  0.37947970163525274  0.36740805862689313  1.0000
  H   H91       1.0  0.6693841128294499  0.12052029821008575  0.8674080587501999  1.0000
  H   H92       1.0  0.8306158873386917  0.6205202988123854  0.6325919416211085  1.0000
  H   H93       1.0  0.2888772155879688  0.8624182285269855  0.20456409001553263  1.0000
  H   H94       1.0  0.21112278487737918  0.3624182286816471  0.2954359101077741  1.0000
  H   H95       1.0  0.7111227841148249  0.13758177116369139  0.795435910232469  1.0000
  H   H96       1.0  0.7888772159701484  0.6375817717659908  0.704564089710949  1.0000
  H   H97       1.0  0.6041762194719379  0.793796074855252  0.1490597680829093  1.0000
  H   H98       1.0  0.8958237816036292  0.2937960750099136  0.35094023197931323  1.0000
  H   H99       1.0  0.39582378137558966  0.2062039248354248  0.8509402317358138  1.0000
  H   H100      1.0  0.10417621932706682  0.7062039254377243  0.6490597682673003  1.0000
  H   H101      1.0  0.4459330689899063  0.712065728630848  0.1697200630144468  1.0000
  H   H102      1.0  0.05406693147544169  0.21206572802854848  0.33027993710885994  1.0000
  H   H103      1.0  0.5540669319407897  0.28793427181678993  0.8302799372321666  1.0000
  H   H104      1.0  0.945933068227352  0.7879342716621284  0.6697200631391417  1.0000
  H   H105      1.0  0.5711511800068101  0.7777930287037199  0.2223781643901212  1.0000
  H   H106      1.0  0.9288488198408547  0.2777930288583813  0.27762183567348936  1.0000
  H   H107      1.0  0.42884881969598365  0.22220697098695713  0.7776218358578804  1.0000
  H   H108      1.0  0.07115118100667281  0.7222069715892566  0.7223781641452337  1.0000
  H   H109      1.0  0.2177624448572899  0.21659609431631563  0.22811929217546378  1.0000
  H   H110      1.0  0.28223755438015585  0.7165960941616542  0.271880707949231  1.0000
  H   H111      1.0  0.782237554845504  0.7834039061313223  0.7718807080725377  1.0000
  H   H112      1.0  0.7177624452394694  0.28340390552902284  0.72811929187088  1.0000
  H   H113      1.0  0.3583355938054049  0.31327219608866996  0.20985392840084696  1.0000
  H   H114      1.0  0.14166440543204084  0.8132721959340085  0.2901460717238479  1.0000
  H   H115      1.0  0.6416644058973888  0.6867278036020069  0.7901460718471546  1.0000
  H   H116      1.0  0.8583355941875844  0.1867278037566685  0.7098539280962632  1.0000
  H   H117      1.0  0.13674190997853275  0.192379648671641  0.12244522722742274  1.0000
  H   H118      1.0  0.3632580904868153  0.6923796485169795  0.377554772895884  1.0000
  H   H119      1.0  0.863258089724261  0.807620351019036  0.8775547730205788  1.0000
  H   H120      1.0  0.6367419091328099  0.30762035117369746  0.6224452269242271  1.0000
  H   H121      1.0  0.26875112046947053  0.2950261457511436  0.10739850260943233  1.0000
  H   H122      1.0  0.23124887999587748  0.7950261455964821  0.3926014975138744  1.0000
  H   H123      1.0  0.731248880378057  0.7049738546964942  0.8926014972092907  1.0000
  H   H124      1.0  0.7687511197069162  0.2049738540941948  0.6073985027341271  1.0000
  H   H125      1.0  0.9754154832946441  0.3050359946587185  0.18219429147221644  1.0000
  H   H126      1.0  0.5245845165530206  0.8050359945040569  0.3178057085913941  1.0000
  H   H127      1.0  0.024584516408149557  0.6949640057889195  0.8178057087757851  1.0000
  H   H128      1.0  0.47541548429450686  0.19496400594358093  0.6821942912273289  1.0000
  H   H129      1.0  0.11397401610748888  0.4055963276047133  0.17285644002314465  1.0000
  H   H130      1.0  0.3860259843578592  0.9055963274500518  0.3271435601001621  1.0000
  H   H131      1.0  0.8860259848232072  0.5944036728429246  0.8271435602234687  1.0000
  H   H132      1.0  0.6139740152617661  0.09440367224062514  0.6728564397199489  1.0000
  H   H133      1.0  0.04060925057455711  0.40637564925336944  0.06717414994707951  1.0000
  H   H134      1.0  0.4593907486628886  0.9063756490987078  0.4328258501776153  1.0000
  H   H135      1.0  0.9593907490450682  0.5936243511942685  0.9328258498730314  1.0000
  H   H136      1.0  0.5406092510399051  0.09362435134893006  0.5671741500703862  1.0000
  H   H137      1.0  0.8600890002811057  0.4212006604350779  0.1051081398366174  1.0000
  H   H138      1.0  0.6399109995665591  0.9212006602804164  0.3948918602269932  1.0000
  H   H139      1.0  0.13991099942168803  0.578799339255599  0.8948918604113844  1.0000
  H   H140      1.0  0.3600890000530661  0.0787993394102605  0.6051081395931178  1.0000
  H   H141      1.0  0.9067823497985502  0.3024374935701177  0.07462418878464258  1.0000
  H   H142      1.0  0.5932176500491145  0.8024374934154561  0.425375811278968  1.0000
  H   H143      1.0  0.09321764982107501  0.6975625061205594  0.9253758110354684  1.0000
  H   H144      1.0  0.40678234965367915  0.19756250627522082  0.5746241889690336  1.0000
  C   C1        1.0  0.5488328001141074  0.18761971730137952  0.14636421474305686  1.0000
  C   C2        1.0  0.9511671997335575  0.687619717146718  0.3536357853205537  1.0000
  C   C3        1.0  0.45116719950551776  0.8123802823892974  0.8536357850770543  1.0000
  C   C4        1.0  0.04883279996923644  0.31238028254395894  0.6463642149274479  1.0000
  C   C5        1.0  0.496088308376188  0.14973322327292682  0.08651678433020542  1.0000
  C   C6        1.0  0.003911692089160002  0.6497332231182653  0.4134832157931013  1.0000
  C   C7        1.0  0.503911692554508  0.8502667771747111  0.913483215916408  1.0000
  C   C8        1.0  0.9960883075304653  0.3502667765724117  0.5865167840270098  1.0000
  C   C9        1.0  0.6050291542605079  0.19694057347579047  0.04283778603005072  1.0000
  C   C10       1.0  0.894970845587157  0.696940573321129  0.45716221403355983  1.0000
  C   C11       1.0  0.3949708454422859  0.8030594269718475  0.9571622142179508  1.0000
  C   C12       1.0  0.10502915403246828  0.303059426369548  0.5428377857865512  1.0000
  C   C13       1.0  0.5429914008340526  0.17521044275476857  0.9812647640544772  1.0000
  C   C14       1.0  0.9570085992509206  0.6752104426001071  0.5187352358889407  1.0000
  C   C15       1.0  0.457008600013475  0.8247895576928693  0.01873523576424586  1.0000
  C   C16       1.0  0.04299140045187301  0.32478955709056984  0.48126476435906085  1.0000
  C   C17       1.0  0.5376608519184657  0.17341200631765818  0.2499076992573579  1.0000
  C   C18       1.0  0.9623391479291991  0.6734120061629967  0.25009230080625267  1.0000
  C   C19       1.0  0.462339147784328  0.8265879933730188  0.7500923009906436  1.0000
  C   C20       1.0  0.03766085169042615  0.3265879935276803  0.7499076990138585  1.0000
  C   C21       1.0  0.44742157227327456  0.15751838569423365  0.30401007950282755  1.0000
  C   C22       1.0  0.05257842696417117  0.657518386296533  0.1959899206218673  1.0000
  C   C23       1.0  0.5525784273463507  0.8424816139964433  0.6959899203172837  1.0000
  C   C24       1.0  0.9474215727386225  0.34248161415110484  0.8040100796261342  1.0000
  C   C25       1.0  0.5700420516832103  0.16154232537855287  0.35635035408205296  1.0000
  C   C26       1.0  0.929957948081286  0.6615423252238913  0.14364964555366708  1.0000
  C   C27       1.0  0.4299579479364149  0.8384576750690851  0.643649645738058  1.0000
  C   C28       1.0  0.07004205153833928  0.33845767522374665  0.856350354266444  1.0000
  C   C29       1.0  0.48468716457258915  0.15537881871771722  0.41222925858277903  1.0000
  C   C30       1.0  0.01531283589275888  0.6553788185630557  0.08777074154052773  1.0000
  C   C31       1.0  0.5153128351302045  0.8446211809729597  0.5877707416652225  1.0000
  C   C32       1.0  0.9846871650379371  0.3446211811276212  0.9122292587060857  1.0000
  C   C33       1.0  0.35724709303244057  0.06064120328257213  0.18637435771693045  1.0000
  C   C34       1.0  0.14275290743290747  0.5606412031279107  0.3136256424063763  1.0000
  C   C35       1.0  0.6427529066703532  0.9393587964081048  0.8136256425310711  1.0000
  C   C36       1.0  0.85724709341462  0.43935879656276633  0.6863743574123466  1.0000
  C   C37       1.0  0.4774043320669521  0.9731324070754129  0.19184107971937261  1.0000
  C   C38       1.0  0.02259566839839598  0.4731324072300745  0.30815892040393417  1.0000
  C   C39       1.0  0.522595668863744  0.02686759261526396  0.8081589205272409  1.0000
  C   C40       1.0  0.9774043312212293  0.5268675924606024  0.6918410794161769  1.0000
  C   C41       1.0  0.3898286900004021  0.8736870307804742  0.17608483867398425  1.0000
  C   C42       1.0  0.11017131046494592  0.3736870309351358  0.3239151614493225  1.0000
  C   C43       1.0  0.6101713096192233  0.12631296891020274  0.8239151611461268  1.0000
  C   C44       1.0  0.8898286904657501  0.6263129687555412  0.676084838797291  1.0000
  C   C45       1.0  0.5082546301881923  0.7843111655467943  0.17955263499243615  1.0000
  C   C46       1.0  0.9917453696594725  0.2843111649444948  0.32044736507117444  1.0000
  C   C47       1.0  0.49174536951460146  0.21568883490084367  0.8204473652555654  1.0000
  C   C48       1.0  0.008254631188054994  0.7156888347461822  0.6795526347475486  1.0000
  C   C49       1.0  0.29721847599676177  0.24278522049836146  0.19502642434552664  1.0000
  C   C50       1.0  0.202781523240684  0.7427852203436999  0.30497357577916817  1.0000
  C   C51       1.0  0.702781523706032  0.7572147791923154  0.8049735759024749  1.0000
  C   C52       1.0  0.7972184763789413  0.257214779346977  0.695026424040943  1.0000
  C   C53       1.0  0.19348920895883504  0.2623417830677651  0.14003963664330127  1.0000
  C   C54       1.0  0.306510791506513  0.7623417829131035  0.3599603634800055  1.0000
  C   C55       1.0  0.806510791971861  0.7376582173798728  0.8599603636033123  1.0000
  C   C56       1.0  0.6934892081131123  0.2376582175345344  0.6400396363401056  1.0000
  C   C57       1.0  0.05786379213008077  0.33822674988229917  0.15175180488556536  1.0000
  C   C58       1.0  0.44213620833526723  0.8382267497276376  0.34824819523774136  1.0000
  C   C59       1.0  0.9421362087174469  0.6617732505653389  0.8482481949331576  1.0000
  C   C60       1.0  0.5578637913675265  0.16177325072000034  0.6517518050102602  1.0000
  C   C61       1.0  0.9606043658886556  0.36900497420070233  0.09680327899182091  1.0000
  C   C62       1.0  0.5393956339590091  0.8690049740460408  0.40319672107178967  1.0000
  C   C63       1.0  0.03939563373096963  0.6309950262469357  0.9031967208282902  1.0000
  C   C64       1.0  0.4606043657437845  0.13099502564463614  0.5968032791762119  1.0000
  C   C65       1.0  0.07606382440212281  0.991436908428991  0.4826018215244411  1.0000
  C   C66       1.0  0.42393617606322526  0.4914369085836526  0.01739817859886566  1.0000
  C   C67       1.0  0.9239361764454047  0.008563091261685881  0.5173981782942819  1.0000
  C   C68       1.0  0.5760638236395684  0.5085630911070244  0.9826018216491359  1.0000
  C   C69       1.0  0.4392989629051611  0.5375336932663379  0.5125126878289609  1.0000
  C   C70       1.0  0.06070103779749537  0.03753369342099948  0.987487312174153  1.0000
  C   C71       1.0  0.560701038025535  0.462466306424339  0.4874873124176526  1.0000
  C   C72       1.0  0.9392989618221298  0.9624663062696774  0.012512687645958007  1.0000
  N   N1        1.0  0.43364364940179045  0.1643842121439535  0.19358865248125018  1.0000
  N   N2        1.0  0.06635635098038906  0.6643842127462529  0.3064113472141661  1.0000
  N   N3        1.0  0.566356351445737  0.8356157875467235  0.8064113473374729  1.0000
  N   N4        1.0  0.9336436486392362  0.335615787701385  0.6935886526059449  1.0000
  F   F1        1.0  0.19131447683334007  0.0639583979838835  0.49687361481486264  1.0000
  F   F2        1.0  0.3086855235488395  0.563958397829222  0.0031263848805536  1.0000
  F   F3        1.0  0.8086855240141874  0.9360416017067934  0.5031263850038604  1.0000
  F   F4        1.0  0.6913144760707858  0.43604160186145496  0.9968736149395574  1.0000
  F   F5        1.0  0.14454718956781173  0.8994275220620753  0.49740108221144774  1.0000
  F   F6        1.0  0.35545280958646547  0.3994275222167369  0.002598917485356514  1.0000
  F   F7        1.0  0.8554528100518134  0.10057247838556264  0.5025989176086633  1.0000
  F   F8        1.0  0.6445471900331599  0.6005724782309011  0.9974010823347546  1.0000
  F   F9        1.0  0.2845844402875776  0.5190226535844976  0.4881918333048271  1.0000
  F   F10       1.0  0.21541556017777042  0.019022653739159158  0.011808166818479638  1.0000
  F   F11       1.0  0.7154155605599499  0.4809773468631403  0.5118081665138959  1.0000
  F   F12       1.0  0.7845844395250233  0.9809773467084788  0.988191833429522  1.0000
  F   F13       1.0  0.4808008416156531  0.634173706922058  0.49773283261466816  1.0000
  F   F14       1.0  0.019199158849694933  0.13417370707671952  0.0022671675086386174  1.0000
  F   F15       1.0  0.5191991593150429  0.365826292768619  0.5022671676319455  1.0000
  F   F16       1.0  0.9808008407699303  0.8658262933709185  0.9977328323114724  1.0000
  I   I1        1.0  0.017495849409614194  0.9952838350496379  0.38885003506925686  1.0000
  I   I2        1.0  0.4825041498278315  0.49528383520429936  0.11114996505543795  1.0000
  I   I3        1.0  0.9825041502931795  0.0047161646410390735  0.6111499651787446  1.0000
  I   I4        1.0  0.5174958498749622  0.5047161644863776  0.8888500351925636  1.0000
  I   I5        1.0  0.43667789581790906  0.5269776182587992  0.6070623510152688  1.0000
  I   I6        1.0  0.06332210365684507  0.02697761765649967  0.8929376489892332  1.0000
  I   I7        1.0  0.5633221038017162  0.4730223821888388  0.3929376488048422  1.0000
  I   I8        1.0  0.9366778960459486  0.9730223820341773  0.10706235125876835  1.0000
  I   I9        1.0  0.9365352153942565  0.9905971540403326  0.24878406096730502  1.0000
  I   I10       1.0  0.5634647844534082  0.49059715419499406  0.2512159390963056  1.0000
  I   I11       1.0  0.06346478430853725  0.009402845650344408  0.7512159392806966  1.0000
  I   I12       1.0  0.4365352151662169  0.5094028462526439  0.7487840607238054  1.0000
