data_image0
_chemical_formula_structural       H16C26N2O8Cl2
_chemical_formula_sum              "H16 C26 N2 O8 Cl2"
_cell_length_a       4.77591654523708
_cell_length_b       10.859014445419634
_cell_length_c       11.646066267174847
_cell_angle_alpha    106.94316988117627
_cell_angle_beta     96.31463797190163
_cell_angle_gamma    102.52644475522807

_space_group_name_H-M_alt    "P 1"
_space_group_IT_number       1

loop_
  _space_group_symop_operation_xyz
  'x, y, z'

loop_
  _atom_site_type_symbol
  _atom_site_label
  _atom_site_symmetry_multiplicity
  _atom_site_fract_x
  _atom_site_fract_y
  _atom_site_fract_z
  _atom_site_occupancy
  H   H1        1.0  0.07831337004849559  0.6369178778491116  0.23471117008852316  1.0000
  H   H2        1.0  0.9216866294840635  0.36308212177653004  0.7652888299001533  1.0000
  H   H3        1.0  0.030644366398158276  0.5968726622566408  0.6252663725992338  1.0000
  H   H4        1.0  0.9693556335901873  0.4031273383108562  0.37473362738527694  1.0000
  H   H5        1.0  0.6157100485090852  0.5647766544363259  0.454285521626354  1.0000
  H   H6        1.0  0.38428995102347385  0.4352233451893158  0.5457144783623225  1.0000
  H   H7        1.0  0.43864722278435003  0.7551942660125777  0.7892826356890005  1.0000
  H   H8        1.0  0.5613527767482092  0.2448057336130641  0.21071736429967605  1.0000
  H   H9        1.0  0.7033032659402355  0.9897179325856139  0.9121405174133578  1.0000
  H   H10       1.0  0.29669673404810987  0.010282067981882918  0.0878594825711528  1.0000
  H   H11       1.0  0.5351274576500894  0.17851961277686845  0.8762794719363176  1.0000
  H   H12       1.0  0.4648725418824697  0.8214803868487731  0.12372052805235885  1.0000
  H   H13       1.0  0.09176850305651249  0.1357921898265847  0.7200687147486092  1.0000
  H   H14       1.0  0.9082314964760465  0.8642078097990569  0.27993128524006716  1.0000
  H   H15       1.0  0.7082741692819812  0.975926822308694  0.5657416015468345  1.0000
  H   H16       1.0  0.29172583234452176  0.024073177319107707  0.4342583984383682  1.0000
  C   C1        1.0  0.6850135064010958  0.6053467409645554  0.9701868944154056  1.0000
  C   C2        1.0  0.3149864935872498  0.39465325960294156  0.02981310556910504  1.0000
  C   C3        1.0  0.7697699575712337  0.5847868907126211  0.07840331999269515  1.0000
  C   C4        1.0  0.23023004241711184  0.4152131098548757  0.9215966799918154  1.0000
  C   C5        1.0  0.5802457688092798  0.4755836890879968  0.11444193489642317  1.0000
  C   C6        1.0  0.4197542328172231  0.524416310539805  0.8855580650887797  1.0000
  C   C7        1.0  0.37559464129734266  0.7580748560598795  0.4133029243790856  1.0000
  C   C8        1.0  0.6244053582352165  0.24192514356576234  0.5866970756095908  1.0000
  C   C9        1.0  0.640598102690546  0.7723559999748848  0.5051544435332932  1.0000
  C   C10       1.0  0.3594018968420131  0.22764399965075674  0.49484555645538314  1.0000
  C   C11       1.0  0.02428063607178108  0.922204842708068  0.6648107675843409  1.0000
  C   C12       1.0  0.9757193639165644  0.07779515785942889  0.33518923240016985  1.0000
  C   C13       1.0  0.11880179171746892  0.8121226597515753  0.6837112584418894  1.0000
  C   C14       1.0  0.8811982082708767  0.18787734081592167  0.3162887415426212  1.0000
  C   C15       1.0  0.9641492962817102  0.6813970908159891  0.609202304291289  1.0000
  C   C16       1.0  0.03585070325084892  0.31860290880965253  0.3907976956973875  1.0000
  C   C17       1.0  0.73220062233159  0.6622781810223164  0.518171858831527  1.0000
  C   C18       1.0  0.2677993776567555  0.33772181954518055  0.48182814115298356  1.0000
  C   C19       1.0  0.3662798976197087  0.8391247213222838  0.7752592826793208  1.0000
  C   C20       1.0  0.6337201023686367  0.1608752792452131  0.2247407173051898  1.0000
  C   C21       1.0  0.5107825564610096  0.9691067150011962  0.8429950952995956  1.0000
  C   C22       1.0  0.4892174430715494  0.030893284624445336  0.15700490468908068  1.0000
  C   C23       1.0  0.414019646676412  0.07675270669320912  0.823012744014639  1.0000
  C   C24       1.0  0.5859803533119334  0.9232472938742877  0.17698725596987172  1.0000
  C   C25       1.0  0.17245398961623118  0.05456545547499889  0.7355323086554381  1.0000
  C   C26       1.0  0.8275460103721142  0.9454345450924979  0.2644676913290725  1.0000
  N   N1        1.0  0.783514252905963  0.8956923530855253  0.5769879419062124  1.0000
  N   N2        1.0  0.21648574662659603  0.10430764654011626  0.42301205808246395  1.0000
  O   O1        1.0  0.6619023870479087  0.46133474204839614  0.21337948504318022  1.0000
  O   O2        1.0  0.3380976145785943  0.5386652575794056  0.7866205149420227  1.0000
  O   O3        1.0  0.01359101442544618  0.6578334180687034  0.1520819216903785  1.0000
  O   O4        1.0  0.9864089855628992  0.3421665824987935  0.8479180782941321  1.0000
  O   O5        1.0  0.2918646639634282  0.8611835540068328  0.41807345876727664  1.0000
  O   O6        1.0  0.7081353380779581  0.1388164459493961  0.5819265421313795  1.0000
  O   O7        1.0  0.26154829912738253  0.64025838730686  0.3405871285292197  1.0000
  O   O8        1.0  0.7384517004051765  0.35974161231878155  0.6594128714594567  1.0000
  Cl  Cl1       1.0  0.904967261127941  0.7283254857366231  0.9300690030779413  1.0000
  Cl  Cl2       1.0  0.09503273886040445  0.2716745148308738  0.06993099690656931  1.0000
