data_image0
_chemical_formula_structural       H68B48C60N4O8S12Cl44
_chemical_formula_sum              "H68 B48 C60 N4 O8 S12 Cl44"
_cell_length_a       15.503775079870858
_cell_length_b       14.750364878492078
_cell_length_c       15.43909313132622
_cell_angle_alpha    90.0
_cell_angle_beta     110.4246926776824
_cell_angle_gamma    90.0

_space_group_name_H-M_alt    "P 1"
_space_group_IT_number       1

loop_
  _space_group_symop_operation_xyz
  'x, y, z'

loop_
  _atom_site_type_symbol
  _atom_site_label
  _atom_site_symmetry_multiplicity
  _atom_site_fract_x
  _atom_site_fract_y
  _atom_site_fract_z
  _atom_site_occupancy
  H   H1        1.0  0.1384321660569145  0.7887418437332487  0.43811404796667913  1.0000
  H   H2        1.0  0.8615678346335612  0.28874184368213407  0.061885952249569304  1.0000
  H   H3        1.0  0.8615678340771193  0.21125815636898068  0.5618859519705466  1.0000
  H   H4        1.0  0.13843216550047244  0.7112581564200954  0.9381140476876563  1.0000
  H   H5        1.0  0.021722334796517435  0.8030558333693875  0.43156353919260515  1.0000
  H   H6        1.0  0.9782776652492395  0.30305583331827274  0.06843646102446346  1.0000
  H   H7        1.0  0.9782776646927976  0.19694416673284196  0.5684364607454407  1.0000
  H   H8        1.0  0.021722334884794095  0.6969441667839567  0.9315635389127621  1.0000
  H   H9        1.0  0.04721394962786516  0.7903896463605208  0.327721182005442  1.0000
  H   H10       1.0  0.9527860504178919  0.29038964630940606  0.17227881821162663  1.0000
  H   H11       1.0  0.9527860505061685  0.20961035374170864  0.6722788179317837  1.0000
  H   H12       1.0  0.04721394907142316  0.7096103537928234  0.8277211817264193  1.0000
  H   H13       1.0  0.05831627393645372  0.5757880404968154  0.5114783141451019  1.0000
  H   H14       1.0  0.9416837265268132  0.07578804044570066  0.9885216862034387  1.0000
  H   H15       1.0  0.9416837264385367  0.424211959605414  0.4885216864832817  1.0000
  H   H16       1.0  0.05831627360722038  0.9242119596565288  0.01147831373378692  1.0000
  H   H17       1.0  0.03492272409887748  0.6910609590996142  0.5325498623132394  1.0000
  H   H18       1.0  0.9650772754787142  0.19106095904849948  0.9674501373449634  1.0000
  H   H19       1.0  0.9650772753904375  0.3089390410026152  0.46745013762480636  1.0000
  H   H20       1.0  0.03492272465531951  0.8089390410537299  0.03254986259226222  1.0000
  H   H21       1.0  0.14939897957282744  0.6577205858918245  0.5447063274719284  1.0000
  H   H22       1.0  0.8506010202457209  0.15772058584070975  0.9552936728774325  1.0000
  H   H23       1.0  0.8506010201574441  0.342279414210405  0.4552936731572753  1.0000
  H   H24       1.0  0.14939897988831283  0.8422794142615198  0.04470632705979322  1.0000
  H   H25       1.0  0.938137919698599  0.6652055139535692  0.28277999811404225  1.0000
  H   H26       1.0  0.06186208034715789  0.16520551390245453  0.21722000210302625  1.0000
  H   H27       1.0  0.061862080435434584  0.33479448614866014  0.7172200018231834  1.0000
  H   H28       1.0  0.9381379197868759  0.8347944861997749  0.7827799978341995  1.0000
  H   H29       1.0  0.9162755464544953  0.6918957676010605  0.3864124466342238  1.0000
  H   H30       1.0  0.08372445335030515  0.19189576754994575  0.11358755289168689  1.0000
  H   H31       1.0  0.08372445367953849  0.3081042325011689  0.6135875533030019  1.0000
  H   H32       1.0  0.9162755467837286  0.8081042325522837  0.8864124470455388  1.0000
  H   H33       1.0  0.943369250332808  0.5775433211433133  0.3649089229004519  1.0000
  H   H34       1.0  0.056630749471992384  0.07754332177014792  0.13509107662545874  1.0000
  H   H35       1.0  0.0566307498012257  0.42245667828096684  0.6350910770367737  1.0000
  H   H36       1.0  0.9433692500173226  0.9224566783320816  0.8649089233125872  1.0000
  H   H37       1.0  0.761899986766038  0.9454389572650116  0.6382346666461636  1.0000
  H   H38       1.0  0.2381000130525103  0.44543895721389687  0.8617653337031973  1.0000
  H   H39       1.0  0.23810001336799566  0.054561042837217855  0.36176533329106203  1.0000
  H   H40       1.0  0.7618999870815234  0.5545610428883325  0.13823466623402844  1.0000
  H   H41       1.0  0.7738284714906358  0.9087637519764423  0.798641400186125  1.0000
  H   H42       1.0  0.22617152873167468  0.40876375192532755  0.7013585994712579  1.0000
  H   H43       1.0  0.22617152864339798  0.09123624812578718  0.20135859975110074  1.0000
  H   H44       1.0  0.7738284714023591  0.5912362481769019  0.29864140046596777  1.0000
  H   H45       1.0  0.6607993555945088  0.9721528340569382  0.8642993119203396  1.0000
  H   H46       1.0  0.3392006442240395  0.47215283400582353  0.6357006884290212  1.0000
  H   H47       1.0  0.3392006441357628  0.027847166045291166  0.1357006887088641  1.0000
  H   H48       1.0  0.6607993559099943  0.5278471660964059  0.3642993115082045  1.0000
  H   H49       1.0  0.5335165245942117  0.06900374657742381  0.768357041830236  1.0000
  H   H50       1.0  0.46648347522433664  0.5690037466285386  0.7316429585191249  1.0000
  H   H51       1.0  0.46648347489510333  0.9309962535248056  0.23164295810780985  1.0000
  H   H52       1.0  0.533516524909697  0.4309962534736909  0.26835704141810074  1.0000
  H   H53       1.0  0.37638532934776936  0.25050676918425796  0.46470828713808954  1.0000
  H   H54       1.0  0.6236146706979876  0.7505067685574234  0.03529171307897901  1.0000
  H   H55       1.0  0.6236146707862642  0.7494932309179715  0.535291712799136  1.0000
  H   H56       1.0  0.376385329032284  0.2494932308668568  0.9647082875502246  1.0000
  H   H57       1.0  0.36858386209309685  0.2958632288726229  0.3087637563003176  1.0000
  H   H58       1.0  0.63141613795266  0.7958632289237376  0.191236243916751  1.0000
  H   H59       1.0  0.631416137396218  0.7041367712296066  0.6912362436377283  1.0000
  H   H60       1.0  0.3685838621813736  0.20413677117849185  0.8087637560204746  1.0000
  H   H61       1.0  0.47629408383290767  0.22660720107838483  0.23836330062791253  1.0000
  H   H62       1.0  0.5237059162128493  0.7266072011294996  0.26163669958915603  1.0000
  H   H63       1.0  0.5237059163011261  0.7733927990238446  0.761636699309313  1.0000
  H   H64       1.0  0.47629408416214086  0.27339279897272983  0.7383633010392274  1.0000
  H   H65       1.0  0.5942428853992133  0.1174164147305524  0.3271080023714025  1.0000
  H   H66       1.0  0.4057571146465437  0.6174164147816671  0.17289199784566606  1.0000
  H   H67       1.0  0.4057571147348204  0.8825835846937278  0.6728919975658231  1.0000
  H   H68       1.0  0.59424288548749  0.38258358532056236  0.8271080020915595  1.0000
  B   B1        1.0  0.1210504718130227  0.6165758837099187  0.3615389190315253  1.0000
  B   B2        1.0  0.8789495282327343  0.11657588433675325  0.13846108118554326  1.0000
  B   B3        1.0  0.878949528321011  0.38342411571436147  0.6384610809057004  1.0000
  B   B4        1.0  0.12105047125658067  0.8834241157654762  0.8615389187525024  1.0000
  B   B5        1.0  0.10027061622455252  0.6161831435948285  0.23915634560721447  1.0000
  B   B6        1.0  0.8997293844659232  0.11618314354371383  0.2608436546090339  1.0000
  B   B7        1.0  0.8997293839094813  0.3838168565074009  0.7608436543300111  1.0000
  B   B8        1.0  0.10027061566811049  0.8838168565585156  0.7391563453281917  1.0000
  B   B9        1.0  0.19872979312234734  0.6756896817198523  0.31511844278873147  1.0000
  B   B10       1.0  0.8012702069234097  0.17568968166873755  0.18488155742833712  1.0000
  B   B11       1.0  0.8012702070116864  0.32431031838237717  0.6848815571484942  1.0000
  B   B12       1.0  0.198729793210624  0.8243103184334919  0.8151184425088885  1.0000
  B   B13       1.0  0.24391943344475775  0.6103491218123926  0.4193597501107258  1.0000
  B   B14       1.0  0.7560805666009993  0.11034912176127792  0.08064025010634279  1.0000
  B   B15       1.0  0.7560805666892759  0.3896508782898368  0.5806402498264998  1.0000
  B   B16       1.0  0.24391943288831577  0.8896508783409515  0.9193597498317031  1.0000
  B   B17       1.0  0.17498182642694066  0.5097004089005687  0.40586350271484695  1.0000
  B   B18       1.0  0.8250181736188164  0.009700408849453997  0.09413649750222167  1.0000
  B   B19       1.0  0.8250181737070931  0.4902995912016607  0.5941364972223787  1.0000
  B   B20       1.0  0.17498182651521735  0.9902995912527754  0.905863502435004  1.0000
  B   B21       1.0  0.08621606512702255  0.5131324040015045  0.29455758415741007  1.0000
  B   B22       1.0  0.9137839346777779  0.013132403950389778  0.2054424153685006  1.0000
  B   B23       1.0  0.9137839350070112  0.48686759610072494  0.7054424157798156  1.0000
  B   B24       1.0  0.08621606545625587  0.9868675961518396  0.794557584568725  1.0000
  B   B25       1.0  0.20887209841711163  0.6095013482079421  0.22271218168337945  1.0000
  B   B26       1.0  0.7911279016286453  0.10950134815682738  0.2772878185336891  1.0000
  B   B27       1.0  0.7911279010722033  0.39049865189428734  0.7772878182546664  1.0000
  B   B28       1.0  0.20887209850538832  0.890498651945402  0.7227121814035365  1.0000
  B   B29       1.0  0.29754028393493764  0.6057949497255752  0.3338656458268909  1.0000
  B   B30       1.0  0.7024597161108194  0.10579494967446056  0.16613435439017774  1.0000
  B   B31       1.0  0.7024597155543774  0.39420505037665415  0.666134354111155  1.0000
  B   B32       1.0  0.29754028426417095  0.8942050504277689  0.8338656462382058  1.0000
  B   B33       1.0  0.28383146693161093  0.504390864991306  0.3900082019767367  1.0000
  B   B34       1.0  0.7161685328731894  0.004390864940191302  0.10999179754917394  1.0000
  B   B35       1.0  0.7161685332024228  0.4956091351109234  0.609991797960489  1.0000
  B   B36       1.0  0.28383146661612557  0.9956091351620382  0.8900082023888719  1.0000
  B   B37       1.0  0.18719800830168046  0.4452428440991482  0.31276428319907396  1.0000
  B   B38       1.0  0.8128019917440766  0.9452428441502629  0.18723571701799466  1.0000
  B   B39       1.0  0.8128019911876344  0.5547571560030812  0.6872357167389719  1.0000
  B   B40       1.0  0.18719800838995712  0.054757155951966494  0.812764282919231  1.0000
  B   B41       1.0  0.14086613920796404  0.5102805986159078  0.20994886305618865  1.0000
  B   B42       1.0  0.859133860837793  0.010280598564793086  0.29005113716087993  1.0000
  B   B43       1.0  0.8591338609260697  0.48971940148632165  0.790051136881037  1.0000
  B   B44       1.0  0.14086613929624076  0.9897194015374364  0.7099488627763457  1.0000
  B   B45       1.0  0.26222748750744396  0.5049429692997136  0.2685005656638632  1.0000
  B   B46       1.0  0.7377725122973564  0.004942969248598928  0.23149943386204744  1.0000
  B   B47       1.0  0.737772511981871  0.49505703080251584  0.7314994342741826  1.0000
  B   B48       1.0  0.2622274878366773  0.9950570308536305  0.7685005660751782  1.0000
  C   C1        1.0  0.0669978912648256  0.7702522543402655  0.4001684985918496  1.0000
  C   C2        1.0  0.9330021087809314  0.2702522542891508  0.09983150162521896  1.0000
  C   C3        1.0  0.9330021082244895  0.22974774576196394  0.5998315013461963  1.0000
  C   C4        1.0  0.06699789135310223  0.7297477458130787  0.9001684983120066  1.0000
  C   C5        1.0  0.07642652297193032  0.6464349104952293  0.5059976053055923  1.0000
  C   C6        1.0  0.9235734772503801  0.14643491044411455  0.9940023943517904  1.0000
  C   C7        1.0  0.9235734771621035  0.35356508960700017  0.49400239463163326  1.0000
  C   C8        1.0  0.07642652288365365  0.853565089658115  0.005997605585435317  1.0000
  C   C9        1.0  0.9560569962843611  0.6491110781917694  0.35606814171732654  1.0000
  C   C10       1.0  0.04394300376139586  0.14911107814065463  0.14393185849974205  1.0000
  C   C11       1.0  0.04394300384967254  0.35088892191046006  0.6439318582198992  1.0000
  C   C12       1.0  0.9560569957279191  0.8508889219615748  0.8560681414383037  1.0000
  C   C13       1.0  0.6386575843518545  0.026022061363355182  0.6102202124367795  1.0000
  C   C14       1.0  0.36134241611141243  0.5260220614144699  0.889779787911761  1.0000
  C   C15       1.0  0.3613424157821792  0.9739779380609249  0.3897797875004461  1.0000
  C   C16       1.0  0.6386575840226213  0.4739779386877595  0.11022021202546457  1.0000
  C   C17       1.0  0.7118962174973276  0.9720568005003675  0.6667107460997063  1.0000
  C   C18       1.0  0.2881037823212207  0.4720568004492527  0.8332892542496545  1.0000
  C   C19       1.0  0.28810378263670605  0.027943199601862062  0.33328925383751934  1.0000
  C   C20       1.0  0.7118962171680943  0.5279431996529768  0.1667107456883913  1.0000
  C   C21       1.0  0.7186243153002677  0.9523457823394579  0.7563783014276434  1.0000
  C   C22       1.0  0.28137568427732385  0.4523457822883431  0.7436216982305595  1.0000
  C   C23       1.0  0.28137568483376596  0.04765421776277163  0.24362169850958232  1.0000
  C   C24       1.0  0.7186243152119911  0.5476542178138863  0.25637830170748627  1.0000
  C   C25       1.0  0.6545776326870756  0.9874097847733334  0.793415832735292  1.0000
  C   C26       1.0  0.34542236713147273  0.48740978472221874  0.7065841676140688  1.0000
  C   C27       1.0  0.3454223668022394  0.01259021532889599  0.2065841672027538  1.0000
  C   C28       1.0  0.654577633002561  0.5125902153800107  0.2934158323231569  1.0000
  C   C29       1.0  0.5834108059642107  0.04181575066657299  0.7398950816924922  1.0000
  C   C30       1.0  0.4165891938543376  0.5418157507176877  0.7601049186568687  1.0000
  C   C31       1.0  0.416589194169823  0.9581842494356564  0.2601049182447334  1.0000
  C   C32       1.0  0.5834108056349774  0.4581842493845417  0.23989508128117723  1.0000
  C   C33       1.0  0.5738686586817532  0.06118227497652642  0.6475025336372664  1.0000
  C   C34       1.0  0.42613134089583854  0.5611822750276411  0.8524974660209365  1.0000
  C   C35       1.0  0.42613134145228043  0.938817725125703  0.35249746629995915  1.0000
  C   C36       1.0  0.5738686585934765  0.4388177250745883  0.1475025339171094  1.0000
  C   C37       1.0  0.4885993387252396  0.15629373435782282  0.4848153752820129  1.0000
  C   C38       1.0  0.5114006613205174  0.6562937344089376  0.015184624935055645  1.0000
  C   C39       1.0  0.5114006616497507  0.8437062657444067  0.5151846253463706  1.0000
  C   C40       1.0  0.48859933881351625  0.34370626569329193  0.9848153750021699  1.0000
  C   C41       1.0  0.4237160448365262  0.22096489184159068  0.4345260799470514  1.0000
  C   C42       1.0  0.5762839552092308  0.7209648918927054  0.0654739202700172  1.0000
  C   C43       1.0  0.5762839555384642  0.7790351082606387  0.5654739206813322  1.0000
  C   C44       1.0  0.42371604492480286  0.27903510820952404  0.9345260796672085  1.0000
  C   C45       1.0  0.41958332076669885  0.24629927462319157  0.346961109669136  1.0000
  C   C46       1.0  0.580416679279058  0.7462992746743062  0.1530388905479325  1.0000
  C   C47       1.0  0.5804166793673348  0.7537007254790379  0.6530388902680896  1.0000
  C   C48       1.0  0.4195833202102569  0.25370072542792316  0.8469611093901134  1.0000
  C   C49       1.0  0.48042436432475577  0.20796840724075702  0.30790181982246606  1.0000
  C   C50       1.0  0.5195756357210012  0.7079684072918717  0.19209818039460252  1.0000
  C   C51       1.0  0.5195756358092779  0.7920315928614724  0.6920981801147595  1.0000
  C   C52       1.0  0.48042436465398913  0.2920315928103577  0.807901820233781  1.0000
  C   C53       1.0  0.5462971620033866  0.14602408060702787  0.3570788313017006  1.0000
  C   C54       1.0  0.45370283780141374  0.6460240806581427  0.1429211682242101  1.0000
  C   C55       1.0  0.45370283813064705  0.8539759194952016  0.6429211686355251  1.0000
  C   C56       1.0  0.5462971623326199  0.3539759194440869  0.8570788317130155  1.0000
  C   C57       1.0  0.5517953753863711  0.11938076545941126  0.44651109356139546  1.0000
  C   C58       1.0  0.4482046244184292  0.6193807648325766  0.05348890596451518  1.0000
  C   C59       1.0  0.44820462474766254  0.8806192346428182  0.5534889063758301  1.0000
  C   C60       1.0  0.5517953750708858  0.38061923459170344  0.9465110939735306  1.0000
  N   N1        1.0  0.056030564743890086  0.6694197236027583  0.40574476940415144  1.0000
  N   N2        1.0  0.943969435301867  0.16941972355164353  0.09425523081291717  1.0000
  N   N3        1.0  0.9439694353901437  0.3305802764994712  0.5942552305330742  1.0000
  N   N4        1.0  0.05603056483216668  0.8305802765505859  0.9057447691243083  1.0000
  O   O1        1.0  0.24708229212390453  0.149372919120984  0.48836995857272036  1.0000
  O   O2        1.0  0.7529177079218525  0.6493729191720987  0.011630041644348213  1.0000
  O   O3        1.0  0.7529177080101291  0.8506270803032961  0.5116300413645053  1.0000
  O   O4        1.0  0.24708229221218125  0.35062708093013073  0.9883699582928774  1.0000
  O   O5        1.0  0.27159981199559263  0.25877702222578614  0.6163662825548107  1.0000
  O   O6        1.0  0.7284001878229558  0.7587770222769009  0.8836337177945501  1.0000
  O   O7        1.0  0.7284001883793977  0.7412229778764433  0.38363371807357277  1.0000
  O   O8        1.0  0.27159981166635927  0.2412229778253286  0.11636628214349579  1.0000
  S   S1        1.0  0.6375944437959117  0.04177471371562389  0.49901948620414455  1.0000
  S   S2        1.0  0.36240555600888874  0.5417747137667386  0.0009805133217661223  1.0000
  S   S3        1.0  0.36240555633812205  0.9582252863866055  0.5009805137330812  1.0000
  S   S4        1.0  0.6375944434804263  0.4582252863354908  0.9990194866162797  1.0000
  S   S5        1.0  0.47833005790482724  0.1245678181615151  0.588129507980562  1.0000
  S   S6        1.0  0.5216699416727644  0.6245678182126297  0.911870491677641  1.0000
  S   S7        1.0  0.5216699422292066  0.875432181262765  0.41187049195666375  1.0000
  S   S8        1.0  0.4783300578165505  0.37543218188959965  0.08812950826040485  1.0000
  S   S9        1.0  0.20797210507995106  0.20766810077129072  0.5407516789591176  1.0000
  S   S10       1.0  0.792027895383316  0.7076681008224055  0.9592483213894231  1.0000
  S   S11       1.0  0.7920278950540827  0.7923318993309387  0.4592483209781081  1.0000
  S   S12       1.0  0.2079721047507177  0.29233189927982406  0.04075167854780258  1.0000
  Cl  Cl1       1.0  0.006162749756441957  0.6750418082551128  0.1559974223017267  1.0000
  Cl  Cl2       1.0  0.9938372500483583  0.1750418082039981  0.344002577224184  1.0000
  Cl  Cl3       1.0  0.993837249732873  0.3249581911691673  0.8440025776363191  1.0000
  Cl  Cl4       1.0  0.006162750085675275  0.824958191220282  0.6559974227130416  1.0000
  Cl  Cl5       1.0  0.2161119294590292  0.7953560685882731  0.3090008008671925  1.0000
  Cl  Cl6       1.0  0.7838880705867278  0.2953560692151077  0.1909991993498761  1.0000
  Cl  Cl7       1.0  0.7838880709159611  0.20464393083600702  0.6909991997611912  1.0000
  Cl  Cl8       1.0  0.21611192890258715  0.7046439308871218  0.8090008005881697  1.0000
  Cl  Cl9       1.0  0.30499902391109734  0.6627913479113499  0.528098883204351  1.0000
  Cl  Cl10      1.0  0.6950009756664943  0.1627913478602352  0.9719011164538518  1.0000
  Cl  Cl11      1.0  0.6950009762229364  0.3372086521908795  0.47190111673287466  1.0000
  Cl  Cl12      1.0  0.3049990238228207  0.8372086522419943  0.02809888348419391  1.0000
  Cl  Cl13      1.0  0.15935751970057907  0.4464962402118748  0.4988822539837956  1.0000
  Cl  Cl14      1.0  0.840642480345178  0.9464962402629895  0.001117746233272971  1.0000
  Cl  Cl15      1.0  0.840642479788736  0.5535037598903547  0.5011177459542503  1.0000
  Cl  Cl16      1.0  0.15935751978885573  0.05350375983923995  0.9988822537039527  1.0000
  Cl  Cl17      1.0  0.9786440380511942  0.45503214973256667  0.27044648208120886  1.0000
  Cl  Cl18      1.0  0.021355961753606306  0.9550321497836814  0.2295535174447018  1.0000
  Cl  Cl19      1.0  0.021355962082839644  0.5449678503696628  0.7295535178560169  1.0000
  Cl  Cl20      1.0  0.9786440383804274  0.04496785031854805  0.7704464824925238  1.0000
  Cl  Cl21      1.0  0.22517885685064182  0.6619290444968394  0.12564738312814205  1.0000
  Cl  Cl22      1.0  0.7748211431951152  0.16192904444572467  0.37435261708892653  1.0000
  Cl  Cl23      1.0  0.7748211432833918  0.33807095560539  0.8743526168090835  1.0000
  Cl  Cl24      1.0  0.22517885693891854  0.8380709549785554  0.6256473828482992  1.0000
  Cl  Cl25      1.0  0.4086975549735424  0.654205305393536  0.355539588427247  1.0000
  Cl  Cl26      1.0  0.5913024448312579  0.15420530534242144  0.14446041109866367  1.0000
  Cl  Cl27      1.0  0.5913024445157726  0.3457946947086933  0.6444604115107989  1.0000
  Cl  Cl28      1.0  0.40869755530277574  0.845794694759808  0.855539588838562  1.0000
  Cl  Cl29      1.0  0.3797847137963007  0.44770535403020517  0.4709915739996626  1.0000
  Cl  Cl30      1.0  0.6202152862494562  0.9477053540813198  0.029008426217405948  1.0000
  Cl  Cl31      1.0  0.6202152863377329  0.5522946460720243  0.529008425937563  1.0000
  Cl  Cl32      1.0  0.37978471323985874  0.052294646020909566  0.9709915737206399  1.0000
  Cl  Cl33      1.0  0.18116578396191127  0.32402528068774156  0.31235169895659737  1.0000
  Cl  Cl34      1.0  0.8188342160838457  0.8240252800609069  0.18764830126047113  1.0000
  Cl  Cl35      1.0  0.8188342161721224  0.675974719414488  0.6876483009806282  1.0000
  Cl  Cl36      1.0  0.181165784050188  0.1759747193633732  0.8123516986767545  1.0000
  Cl  Cl37      1.0  0.08786522335451555  0.45879763556681796  0.09915159200445411  1.0000
  Cl  Cl38      1.0  0.9121347766912414  0.9587976356179327  0.4008484082126144  1.0000
  Cl  Cl39      1.0  0.9121347761347994  0.5412023645354115  0.9008484079335918  1.0000
  Cl  Cl40      1.0  0.08786522344279224  0.04120236448429674  0.5991515917246112  1.0000
  Cl  Cl41      1.0  0.3352399592088252  0.4489738290919497  0.21725769126331834  1.0000
  Cl  Cl42      1.0  0.6647600408369317  0.9489738291430644  0.28274230895375024  1.0000
  Cl  Cl43      1.0  0.6647600409252086  0.5510261710102798  0.7827423086739073  1.0000
  Cl  Cl44      1.0  0.3352399592971019  0.051026170959165014  0.7172576909834754  1.0000
