data_image0
_chemical_formula_structural       H72C24N8O32P4
_chemical_formula_sum              "H72 C24 N8 O32 P4"
_cell_length_a       15.055449294946936
_cell_length_b       10.424415523869122
_cell_length_c       9.588677149873938
_cell_angle_alpha    90.0
_cell_angle_beta     121.06808012235848
_cell_angle_gamma    90.0

_space_group_name_H-M_alt    "P 1"
_space_group_IT_number       1

loop_
  _space_group_symop_operation_xyz
  'x, y, z'

loop_
  _atom_site_type_symbol
  _atom_site_label
  _atom_site_symmetry_multiplicity
  _atom_site_fract_x
  _atom_site_fract_y
  _atom_site_fract_z
  _atom_site_occupancy
  H   H1        1.0  0.8940930684714311  0.2206427559159985  0.587514501802928  1.0000
  H   H2        1.0  0.3940930679938549  0.7206427557304186  0.5875145010035789  1.0000
  H   H3        1.0  0.10590693182049535  0.2206427559159985  0.9124854985327322  1.0000
  H   H4        1.0  0.6059069319117916  0.7206427557304186  0.9124854981147961  1.0000
  H   H5        1.0  0.1059069317840507  0.7793572446721283  0.41248549814222135  1.0000
  H   H6        1.0  0.6059069322616267  0.2793572438984217  0.4124854989415703  1.0000
  H   H7        1.0  0.8940930684349864  0.7793572446721283  0.08751450141241711  1.0000
  H   H8        1.0  0.3940930683436902  0.2793572438984217  0.08751450183035332  1.0000
  H   H9        1.0  0.47816009834143003  0.003435448243405001  0.43752490872375427  1.0000
  H   H10       1.0  0.9781600984327263  0.5034354480578253  0.437524908305818  1.0000
  H   H11       1.0  0.521839901877607  0.003435448243405001  0.0624750908308842  1.0000
  H   H12       1.0  0.021839901786310827  0.5034354480578253  0.06247509124882042  1.0000
  H   H13       1.0  0.5218399019140516  0.9965645513854353  0.562475091221395  1.0000
  H   H14       1.0  0.021839901822755508  0.49656455157101514  0.5624750916393313  1.0000
  H   H15       1.0  0.4781600983778747  0.9965645513854353  0.9375249091142651  1.0000
  H   H16       1.0  0.9781600984691708  0.49656455157101514  0.9375249086963289  1.0000
  H   H17       1.0  0.7791006677610806  0.7239799174082455  0.7793774047762536  1.0000
  H   H18       1.0  0.27910066728350436  0.22397991759382535  0.7793774039769046  1.0000
  H   H19       1.0  0.22089933253084587  0.7239799174082455  0.7206225955594066  1.0000
  H   H20       1.0  0.7208993319497559  0.22397991759382535  0.7206225951161611  1.0000
  H   H21       1.0  0.22089933249440122  0.2760200822205948  0.22062259516889568  1.0000
  H   H22       1.0  0.7208993322995911  0.7760200829943014  0.22062259594293548  1.0000
  H   H23       1.0  0.7791006677246357  0.2760200822205948  0.2793774043857427  1.0000
  H   H24       1.0  0.27910066763333957  0.7760200829943014  0.27937740480367895  1.0000
  H   H25       1.0  0.7212003742633029  0.6022760610054539  0.822350270683555  1.0000
  H   H26       1.0  0.22120037417200664  0.10227606119103369  0.8223502711014913  1.0000
  H   H27       1.0  0.27879962602862357  0.6022760610054539  0.6776497296521052  1.0000
  H   H28       1.0  0.7787996261199197  0.10227606119103369  0.6776497292341689  1.0000
  H   H29       1.0  0.2787996259921789  0.3977239395826729  0.17764972926159422  1.0000
  H   H30       1.0  0.7787996260834751  0.8977239393970932  0.17764972884365804  1.0000
  H   H31       1.0  0.7212003735544721  0.3977239395826729  0.32235027026773505  1.0000
  H   H32       1.0  0.22120037413556198  0.8977239393970932  0.32235027071098044  1.0000
  H   H33       1.0  0.8291500329182487  0.5742395164787327  0.8166194209445942  1.0000
  H   H34       1.0  0.3291500324406726  0.07423951666431254  0.8166194201452451  1.0000
  H   H35       1.0  0.17084996737367772  0.5742395164787327  0.683380579391066  1.0000
  H   H36       1.0  0.6708499674649738  0.07423951666431254  0.6833805789731298  1.0000
  H   H37       1.0  0.17084996733723304  0.42576048315010767  0.18338057900055518  1.0000
  H   H38       1.0  0.6708499678148093  0.9257604839238142  0.18338057979990416  1.0000
  H   H39       1.0  0.829150032881804  0.42576048315010767  0.3166194205540833  1.0000
  H   H40       1.0  0.3291500327905078  0.9257604839238142  0.3166194209720195  1.0000
  H   H41       1.0  0.7437123153670615  0.6138007368709656  0.5312622750258977  1.0000
  H   H42       1.0  0.24371231488948542  0.113800736097259  0.5312622742265488  1.0000
  H   H43       1.0  0.25628768492486487  0.6138007368709656  0.9687377253097623  1.0000
  H   H44       1.0  0.7562876843437748  0.113800736097259  0.968737724866517  1.0000
  H   H45       1.0  0.25628768488842013  0.3861992637171612  0.46873772491925153  1.0000
  H   H46       1.0  0.75628768469361  0.8861992635315813  0.4687377256932913  1.0000
  H   H47       1.0  0.7437123153306169  0.3861992637171612  0.03126227463538693  1.0000
  H   H48       1.0  0.24371231523932066  0.8861992635315813  0.03126227505332314  1.0000
  H   H49       1.0  0.5491960474245651  0.6341464252708923  0.5599906333181461  1.0000
  H   H50       1.0  0.04919604694698891  0.13414642545647212  0.5599906325187971  1.0000
  H   H51       1.0  0.4508039528673613  0.6341464252708923  0.940009367017514  1.0000
  H   H52       1.0  0.9508039529586576  0.13414642545647212  0.9400093665995779  1.0000
  H   H53       1.0  0.4508039528309167  0.36585357531723445  0.4400093666270032  1.0000
  H   H54       1.0  0.9508039533084928  0.8658535751316546  0.4400093674263522  1.0000
  H   H55       1.0  0.5491960467157341  0.36585357531723445  0.05999063290232604  1.0000
  H   H56       1.0  0.04919604729682418  0.8658535751316546  0.05999063334557145  1.0000
  H   H57       1.0  0.5500412457290712  0.6295208700165386  0.3752733308743057  1.0000
  H   H58       1.0  0.05004124563777506  0.12952087020211833  0.375273331292242  1.0000
  H   H59       1.0  0.4499587544899658  0.6295208700165386  0.12472666868033268  1.0000
  H   H60       1.0  0.9499587542951557  0.12952087020211833  0.12472666945437247  1.0000
  H   H61       1.0  0.44995875452641043  0.37047912961230184  0.6247266690708436  1.0000
  H   H62       1.0  0.9499587539453204  0.8704791294267221  0.6247266686275981  1.0000
  H   H63       1.0  0.5500412457655159  0.37047912961230184  0.8752733312648167  1.0000
  H   H64       1.0  0.05004124528793979  0.8704791294267221  0.8752733304654676  1.0000
  H   H65       1.0  0.6050430020746355  0.7626821524713252  0.5097726824980258  1.0000
  H   H66       1.0  0.10504300265572548  0.2626821526569051  0.5097726829412711  1.0000
  H   H67       1.0  0.3949569975449047  0.7626821524713252  0.9902273178123252  1.0000
  H   H68       1.0  0.8949569976362008  0.2626821526569051  0.9902273173943891  1.0000
  H   H69       1.0  0.39495699750846  0.2373178471575151  0.4902273174218143  1.0000
  H   H70       1.0  0.8949569975997562  0.7373178469719353  0.49022731700387817  1.0000
  H   H71       1.0  0.6050430020381907  0.2373178471575151  0.009772682107514894  1.0000
  H   H72       1.0  0.1050430019468946  0.7373178469719353  0.009772682525451106  1.0000
  C   C1        1.0  0.6827998723988057  0.44262134691724603  0.5755548031880223  1.0000
  C   C2        1.0  0.18279987192122962  0.9426213467316662  0.5755548023886732  1.0000
  C   C3        1.0  0.31720012789312063  0.44262134691724603  0.924445197147638  1.0000
  C   C4        1.0  0.8172001273120305  0.9426213467316662  0.9244451967043925  1.0000
  C   C5        1.0  0.31720012785667595  0.5573786536708807  0.424445196757127  1.0000
  C   C6        1.0  0.8172001276618658  0.05737865385646052  0.4244451975311668  1.0000
  C   C7        1.0  0.6827998723623612  0.5573786536708807  0.07555480279751144  1.0000
  C   C8        1.0  0.18279987227106492  0.05737865385646052  0.07555480321544765  1.0000
  C   C9        1.0  0.5944823903084472  0.6581390778495733  0.5033399957396179  1.0000
  C   C10       1.0  0.09448239021715103  0.15813907803515306  0.5033399961575541  1.0000
  C   C11       1.0  0.4055176099834792  0.6581390778495733  0.9966600045960423  1.0000
  C   C12       1.0  0.9055176100747754  0.15813907803515306  0.9966600041781062  1.0000
  C   C13       1.0  0.4055176099470344  0.34186092177926714  0.4966600042055313  1.0000
  C   C14       1.0  0.9055176100383305  0.8418609215936874  0.4966600037875952  1.0000
  C   C15       1.0  0.5944823895996163  0.34186092177926714  0.0033399953237978337  1.0000
  C   C16       1.0  0.09448239018070638  0.8418609215936874  0.0033399957670432385  1.0000
  C   C17       1.0  0.6985408608375577  0.5882965616592967  0.587679373772057  1.0000
  C   C18       1.0  0.19854086103236782  0.08829656184487644  0.5876793729980172  1.0000
  C   C19       1.0  0.3014591387819825  0.5882965616592967  0.912320626538294  1.0000
  C   C20       1.0  0.8014591388732787  0.08829656184487644  0.9123206261203578  1.0000
  C   C21       1.0  0.30145913874553776  0.4117034379695438  0.41232062614778314  1.0000
  C   C22       1.0  0.801459139223114  0.9117034387432502  0.41232062694713206  1.0000
  C   C23       1.0  0.6985408608011131  0.4117034379695438  0.08767937338154612  1.0000
  C   C24       1.0  0.1985408613822031  0.9117034387432502  0.08767937382479155  1.0000
  N   N1        1.0  0.7606178367293548  0.6247862036089123  0.7624569797886006  1.0000
  N   N2        1.0  0.26061783625177876  0.12478620283520576  0.7624569789892518  1.0000
  N   N3        1.0  0.23938216356257153  0.6247862036089123  0.7375430205470594  1.0000
  N   N4        1.0  0.7393821636538677  0.12478620283520576  0.7375430201291233  1.0000
  N   N5        1.0  0.23938216352612685  0.3752137969792144  0.23754302015654863  1.0000
  N   N6        1.0  0.7393821640037029  0.8752137967936345  0.2375430209558976  1.0000
  N   N7        1.0  0.7606178360205239  0.3752137969792144  0.2624569793727806  1.0000
  N   N8        1.0  0.26061783660161403  0.8752137967936345  0.26245697981602606  1.0000
  O   O1        1.0  0.9344955804447758  0.30987119830398613  0.593487424452154  1.0000
  O   O2        1.0  0.43449558035347957  0.8098711990776927  0.5934874248700901  1.0000
  O   O3        1.0  0.06550441946087063  0.30987119830398613  0.9065125746662209  1.0000
  O   O4        1.0  0.5655044192660605  0.8098711990776927  0.9065125754402608  1.0000
  O   O5        1.0  0.06550441981070591  0.6901288013248542  0.40651257549299535  1.0000
  O   O6        1.0  0.5655044192296159  0.19012880151043407  0.4065125750497499  1.0000
  O   O7        1.0  0.9344955807946111  0.6901288013248542  0.0934874252789283  1.0000
  O   O8        1.0  0.43449558031703495  0.19012880151043407  0.0934874244795793  1.0000
  O   O9        1.0  0.07509149725164622  0.4742733248381659  0.7216985895429676  1.0000
  O   O10       1.0  0.5750914966705563  0.9742733256118726  0.7216985890997222  1.0000
  O   O11       1.0  0.9249085030402802  0.4742733248381659  0.7783014107926924  1.0000
  O   O12       1.0  0.4249085029489839  0.9742733256118726  0.7783014112106287  1.0000
  O   O13       1.0  0.9249085030038355  0.5257266747906745  0.27830141040218165  1.0000
  O   O14       1.0  0.42490850291253923  0.025726674976254242  0.27830141082011783  1.0000
  O   O15       1.0  0.0750914972152016  0.5257266747906745  0.22169858915245683  1.0000
  O   O16       1.0  0.5750914966341115  0.025726674976254242  0.22169858870921144  1.0000
  O   O17       1.0  0.696536172538552  0.3819984114104079  0.6979542870354788  1.0000
  O   O18       1.0  0.19653617244725585  0.8819984121841145  0.697954287453415  1.0000
  O   O19       1.0  0.3034638277533744  0.3819984114104079  0.8020457133001814  1.0000
  O   O20       1.0  0.8034638271722843  0.8819984121841145  0.8020457128569359  1.0000
  O   O21       1.0  0.30346382704454344  0.6180015882184324  0.3020457128843613  1.0000
  O   O22       1.0  0.8034638275221195  0.11800158840401226  0.3020457136837103  1.0000
  O   O23       1.0  0.6965361725021073  0.6180015882184324  0.19795428664496795  1.0000
  O   O24       1.0  0.19653617241081114  0.11800158840401226  0.19795428706290413  1.0000
  O   O25       1.0  0.652037435313902  0.3947593676189749  0.43346484972336596  1.0000
  O   O26       1.0  0.15203743589499208  0.8947593674333951  0.4334648501666114  1.0000
  O   O27       1.0  0.3479625646190287  0.3947593676189749  0.06653515102324846  1.0000
  O   O28       1.0  0.8479625647103248  0.8947593674333951  0.06653515060531225  1.0000
  O   O29       1.0  0.3479625642691935  0.6052406320098654  0.5665351501964742  1.0000
  O   O30       1.0  0.8479625647467696  0.10524063219544524  0.5665351509958231  1.0000
  O   O31       1.0  0.6520374353503469  0.6052406320098654  0.9334648501138769  1.0000
  O   O32       1.0  0.1520374355451568  0.10524063219544524  0.9334648493398371  1.0000
  P   P1        1.0  1.9772014777247691e-10  0.39051327440649225  0.7499999999897783  1.0000
  P   P2        1.0  0.4999999996166301  0.8905132742209123  0.7499999995465328  1.0000
  P   P3        1.0  1.6127546468636888e-10  0.6094867252223481  0.2499999995992674  1.0000
  P   P4        1.0  0.4999999999664654  0.10948672540792795  0.2500000003733072  1.0000
