data_image0
_chemical_formula_structural       H20C28N14S14Cl2
_chemical_formula_sum              "H20 C28 N14 S14 Cl2"
_cell_length_a       9.348673193459623
_cell_length_b       10.508200061344564
_cell_length_c       12.119433344549526
_cell_angle_alpha    98.89639523433839
_cell_angle_beta     107.25255516936124
_cell_angle_gamma    111.0478938311441

_space_group_name_H-M_alt    "P 1"
_space_group_IT_number       1

loop_
  _space_group_symop_operation_xyz
  'x, y, z'

loop_
  _atom_site_type_symbol
  _atom_site_label
  _atom_site_symmetry_multiplicity
  _atom_site_fract_x
  _atom_site_fract_y
  _atom_site_fract_z
  _atom_site_occupancy
  H   H1        1.0  0.3709422450819017  0.655872480703182  0.04787449980885074  1.0000
  H   H2        1.0  0.6290577541285681  0.34412751939761393  0.9521255004847143  1.0000
  H   H3        1.0  0.6407316476355593  0.8493072711095719  0.07969677389795284  1.0000
  H   H4        1.0  0.3592683526393481  0.15069272898168562  0.9203032263921306  1.0000
  H   H5        1.0  0.855719326102188  0.9751447586955303  0.287072121511108  1.0000
  H   H6        1.0  0.1442806736953471  0.024855241084064637  0.7129278778753222  1.0000
  H   H7        1.0  0.7999730607942668  0.9087741684011316  0.4630913853269987  1.0000
  H   H8        1.0  0.2000269394806407  0.09122583169012594  0.5369086149630848  1.0000
  H   H9        1.0  0.5274267333965282  0.7191762404870443  0.4324690021028592  1.0000
  H   H10       1.0  0.47257326687837925  0.2808237596042133  0.5675309981872243  1.0000
  H   H11       1.0  0.29031715579952266  0.9035010771134371  0.4885792840004158  1.0000
  H   H12       1.0  0.7096828439980125  0.09649892266615794  0.5114207153860145  1.0000
  H   H13       1.0  0.09371388635153505  0.7423875958240785  0.561858890832516  1.0000
  H   H14       1.0  0.9062861139233723  0.2576124042671791  0.4381411094575675  1.0000
  H   H15       1.0  0.8148449752347297  0.5607529255724258  0.4139084232408775  1.0000
  H   H16       1.0  0.18515502504017772  0.43924707451883155  0.5860915770492059  1.0000
  H   H17       1.0  0.7356681267253002  0.5408276103720702  0.1953249480609454  1.0000
  H   H18       1.0  0.26433187354960724  0.4591723897191872  0.8046750522291379  1.0000
  H   H19       1.0  0.9324412358775919  0.7038930027966749  0.12399268134244182  1.0000
  H   H20       1.0  0.06755876439731555  0.2961069972945827  0.8760073189476416  1.0000
  C   C1        1.0  0.2705412650957327  0.5647672733549568  0.22058989739225188  1.0000
  C   C2        1.0  0.7294587351791749  0.4352327267363008  0.7794101028978317  1.0000
  C   C3        1.0  0.4322766276380617  0.6754779429541609  0.23844533602740584  1.0000
  C   C4        1.0  0.5677233721594737  0.3245220568254343  0.7615546633590246  1.0000
  C   C5        1.0  0.4654730996704722  0.7109758451657628  0.13863682145427247  1.0000
  C   C6        1.0  0.5345268995399977  0.2890241549350331  0.8613631788392926  1.0000
  C   C7        1.0  0.617383532078106  0.8188823595372153  0.15671836933001637  1.0000
  C   C8        1.0  0.3826164681968013  0.1811176405540421  0.8432816309600669  1.0000
  C   C9        1.0  0.7374660562511198  0.8903918960274665  0.27337952465251575  1.0000
  C   C10       1.0  0.26253394354641535  0.10960810375212847  0.7266204747339146  1.0000
  C   C11       1.0  0.7057747188787223  0.853682259359928  0.3722721691240975  1.0000
  C   C12       1.0  0.29422528139618515  0.14631774073132955  0.627727831165986  1.0000
  C   C13       1.0  0.5532400657711442  0.7473558874577213  0.35555911048983563  1.0000
  C   C14       1.0  0.44675993450376345  0.2526441126335363  0.6444408898002478  1.0000
  C   C15       1.0  0.24312262033548682  0.9096611276938882  0.26249251226416787  1.0000
  C   C16       1.0  0.7568773799394205  0.09033887239736929  0.7375074880259156  1.0000
  C   C17       1.0  0.12298595341527542  0.8146625142947154  0.30269710944461553  1.0000
  C   C18       1.0  0.877014046859632  0.1853374857965421  0.6973028908454679  1.0000
  C   C19       1.0  0.16765488064920644  0.8245753520110384  0.4260376372380194  1.0000
  C   C20       1.0  0.832345119625701  0.17542464808021913  0.573962363052064  1.0000
  C   C21       1.0  0.05708406134543813  0.7339930880419675  0.4658652781903331  1.0000
  C   C22       1.0  0.9429159384520972  0.2660069117376276  0.5341347211960973  1.0000
  C   C23       1.0  0.9014459116719875  0.6321257862945554  0.38300914047893736  1.0000
  C   C24       1.0  0.09855408860291993  0.3678742137967021  0.6169908598111461  1.0000
  C   C25       1.0  0.856619398207201  0.6210377156311083  0.2598993574794785  1.0000
  C   C26       1.0  0.14338060206770645  0.37896228446014923  0.7401006428106051  1.0000
  C   C27       1.0  0.9666095265004047  0.7117962308633725  0.2196620101695656  1.0000
  C   C28       1.0  0.0333904727100651  0.2882037692374234  0.7803379901239995  1.0000
  N   N1        1.0  0.2337237837539485  0.5354365917470127  0.3171137391587632  1.0000
  N   N2        1.0  0.766276216520959  0.4645634083442447  0.6828862611313202  1.0000
  N   N3        1.0  0.15620245974185654  0.49117039630252757  0.10902006694829829  1.0000
  N   N4        1.0  0.843797540533051  0.5088296037887301  0.8909799333417853  1.0000
  N   N5        1.0  0.211142209912311  0.8920207239916  0.14361603911595563  1.0000
  N   N6        1.0  0.7888577898852243  0.10797927578799504  0.8563839602704747  1.0000
  N   N7        1.0  0.3884516259008393  0.013362807421677845  0.3440496185639024  1.0000
  N   N8        1.0  0.611548373896696  0.9866371923579172  0.655950380822528  1.0000
  N   N9        1.0  0.3698676674323071  0.3076319580294328  0.16084214418576387  1.0000
  N   N10       1.0  0.6301323313007905  0.6923680417597008  0.839157855204148  1.0000
  N   N11       1.0  0.31406779028635706  0.2844869169446215  0.3666101136617396  1.0000
  N   N12       1.0  0.6859322095111781  0.7155130828349735  0.6333898857246907  1.0000
  N   N13       1.0  0.06896107621509537  0.11750872559273493  0.14571292356090065  1.0000
  N   N14       1.0  0.9310389240598123  0.8824912744985227  0.8542870767291828  1.0000
  S   S1        1.0  0.05278194268642433  0.41356317138744625  0.28489701630516684  1.0000
  S   S2        1.0  0.9472180575884832  0.5864368287038113  0.7151029839849166  1.0000
  S   S3        1.0  0.9831386914918246  0.37260543147460573  0.09924686121875095  1.0000
  S   S4        1.0  0.01686130771864531  0.6273945686261904  0.9007531390748141  1.0000
  S   S5        1.0  0.35541738025605746  0.9937741170783922  0.11000203867791143  1.0000
  S   S6        1.0  0.6445826200188501  0.006225883012865437  0.8899979616121719  1.0000
  S   S7        1.0  0.5158522995098382  0.1027759461854803  0.29007713156569265  1.0000
  S   S8        1.0  0.4841476997006316  0.8972240539153157  0.7099228687278725  1.0000
  S   S9        1.0  0.44234527593835776  0.35332208783608976  0.30581045918973165  1.0000
  S   S10       1.0  0.5576547238591775  0.6466779119435053  0.6941895401966987  1.0000
  S   S11       1.0  0.12260384583568507  0.16941936975673896  0.29008953085731765  1.0000
  S   S12       1.0  0.8773961539618503  0.8305806300228561  0.7099104685291127  1.0000
  S   S13       1.0  0.18649089942464037  0.183912281232758  0.07510588201356347  1.0000
  S   S14       1.0  0.8135091008502672  0.8160877188584995  0.9248941182765199  1.0000
  Cl  Cl1       1.0  0.7098970834958073  0.20508564817605482  0.15434058709133355  1.0000
  Cl  Cl2       1.0  0.2901029163017279  0.7949143516035402  0.8456594122950966  1.0000
