data_image0
_chemical_formula_structural       H20C28N16S20Cl4
_chemical_formula_sum              "H20 C28 N16 S20 Cl4"
_cell_length_a       9.629171302455857
_cell_length_b       14.751721489846304
_cell_length_c       9.37181405595684
_cell_angle_alpha    90.0
_cell_angle_beta     114.31083298878747
_cell_angle_gamma    90.0

_space_group_name_H-M_alt    "P 1"
_space_group_IT_number       1

loop_
  _space_group_symop_operation_xyz
  'x, y, z'

loop_
  _atom_site_type_symbol
  _atom_site_label
  _atom_site_symmetry_multiplicity
  _atom_site_fract_x
  _atom_site_fract_y
  _atom_site_fract_z
  _atom_site_occupancy
  H   H1        1.0  0.2502525709453149  0.5854418751021295  0.357677180906812  1.0000
  H   H2        1.0  0.7497474294711598  0.0854418754358636  0.14232281968752747  1.0000
  H   H3        1.0  0.7497474291772199  0.41455812490828936  0.6423228198574258  1.0000
  H   H4        1.0  0.2502525701845259  0.9145581245745553  0.857677179905859  1.0000
  H   H5        1.0  0.3823000721512773  0.690585783971857  0.24788232341462482  1.0000
  H   H6        1.0  0.6176999282651974  0.19058578430559103  0.2521176771797146  1.0000
  H   H7        1.0  0.6176999275044084  0.3094142160385619  0.7521176761787616  1.0000
  H   H8        1.0  0.38230007185733744  0.8094142157048277  0.7478823235845232  1.0000
  H   H9        1.0  0.6380117581727083  0.7521608327297402  0.41921887199830205  1.0000
  H   H10       1.0  0.3619882422437665  0.2521608330634743  0.08078112859603741  1.0000
  H   H11       1.0  0.36198824148297754  0.24783916728067865  0.5807811275950844  1.0000
  H   H12       1.0  0.6380117578787682  0.7478391669469445  0.9192188721682004  1.0000
  H   H13       1.0  0.759708819163041  0.7092515003893969  0.6994897994070747  1.0000
  H   H14       1.0  0.24029118123824855  0.20925150072313092  0.8005102003587939  1.0000
  H   H15       1.0  0.2402911815321884  0.290748498943135  0.30051020018889557  1.0000
  H   H16       1.0  0.7597088188842862  0.7907484992872879  0.1994898004054439  1.0000
  H   H17       1.0  0.6309073411240196  0.6025226320953682  0.8087242577081463  1.0000
  H   H18       1.0  0.3690926592772699  0.10252263175121518  0.6912757420577224  1.0000
  H   H19       1.0  0.3690926589985152  0.3974773679150508  0.19127574305609152  1.0000
  H   H20       1.0  0.6309073414179595  0.8974773682592038  0.30872425753824795  1.0000
  C   C1        1.0  0.36018334688528025  0.5198414127651686  0.6552035322149133  1.0000
  C   C2        1.0  0.6398166535160094  0.019841412421015652  0.8447964675509554  1.0000
  C   C3        1.0  0.6398166542767982  0.4801585872452503  0.3447964685519084  1.0000
  C   C4        1.0  0.3601833461396764  0.9801585875894032  0.1552035320424311  1.0000
  C   C5        1.0  0.43182026726451744  0.5867395467001987  0.5906078702072692  1.0000
  C   C6        1.0  0.5681797331367722  0.08673954635604576  0.9093921295585995  1.0000
  C   C7        1.0  0.5681797334307119  0.41326045331022015  0.40939212938870106  1.0000
  C   C8        1.0  0.4318202665189136  0.9132604536543731  0.09060787003478697  1.0000
  C   C9        1.0  0.36147353049158365  0.612894401932896  0.4326435935819768  1.0000
  C   C10       1.0  0.6385264688853473  0.11289440158874309  0.06735640700977877  1.0000
  C   C11       1.0  0.6385264696309512  0.38710559807752287  0.5673564071822611  1.0000
  C   C12       1.0  0.3614735307703385  0.8871055984216758  0.9326435925836077  1.0000
  C   C13       1.0  0.4355976026948727  0.6722538699517789  0.37138387065111056  1.0000
  C   C14       1.0  0.564402397721602  0.17225386960762604  0.12861612994322894  1.0000
  C   C15       1.0  0.5644023974276621  0.3277461300586399  0.6286161301131273  1.0000
  C   C16       1.0  0.4355976019340837  0.8277461304027928  0.8713838696501576  1.0000
  C   C17       1.0  0.5789893611110493  0.7066919482702771  0.4669951820308791  1.0000
  C   C18       1.0  0.42101063883857637  0.20669194792612422  0.03300481739260898  1.0000
  C   C19       1.0  0.4210106385446365  0.29330805174014174  0.5330048175625074  1.0000
  C   C20       1.0  0.5789893618566531  0.7933080520842947  0.9669951822033613  1.0000
  C   C21       1.0  0.6479886665456118  0.6823581788016034  0.6248011301105856  1.0000
  C   C22       1.0  0.3520113328161339  0.1823581784574505  0.8751988696526992  1.0000
  C   C23       1.0  0.35201133311007377  0.31764182120881546  0.37519886948280085  1.0000
  C   C24       1.0  0.6479886668395518  0.8176418215529684  0.12480112994068727  1.0000
  C   C25       1.0  0.5754755844263916  0.6224647703876676  0.6862242803431263  1.0000
  C   C26       1.0  0.424524415974898  0.12246477072140158  0.8137757194227424  1.0000
  C   C27       1.0  0.424524415229294  0.3775352296227514  0.31377571925026015  1.0000
  C   C28       1.0  0.5754755851871807  0.8775352292890173  0.18622428134407937  1.0000
  N   N1        1.0  0.22113508147519376  0.48623217262724583  0.5665417082185734  1.0000
  N   N2        1.0  0.778864917886552  0.9862321729713988  0.9334582915447114  1.0000
  N   N3        1.0  0.778864918180492  0.5137678273831731  0.433458291374813  1.0000
  N   N4        1.0  0.22113508176913363  0.013767827039020113  0.06654170804867506  1.0000
  N   N5        1.0  0.4370446506439215  0.49012158377424264  0.8033975126349424  1.0000
  N   N6        1.0  0.5629553487178244  0.9901215834405086  0.6966024871283425  1.0000
  N   N7        1.0  0.5629553490117643  0.5098784162361762  0.19660248695844412  1.0000
  N   N8        1.0  0.4370446509378613  0.009878416569910328  0.303397512465044  1.0000
  N   N9        1.0  0.2476006426707434  0.6338997286815932  0.9703351773631742  1.0000
  N   N10       1.0  0.7523993566910024  0.1338997283374403  0.5296648224001107  1.0000
  N   N11       1.0  0.7523993569849423  0.3661002713288256  0.02966482223021234  1.0000
  N   N12       1.0  0.2476006429646832  0.8661002716729786  0.4703351771932757  1.0000
  N   N13       1.0  0.006292129616203389  0.6248611422297153  0.7177700827243348  1.0000
  N   N14       1.0  0.9937078697455425  0.12486114188556245  0.7822299170389501  1.0000
  N   N15       1.0  0.9937078700394824  0.3751388577807035  0.2822299168690517  1.0000
  N   N16       1.0  0.0062921299101432486  0.8751388581248565  0.21777008255443647  1.0000
  S   S1        1.0  0.15421362582194403  0.4141669081947707  0.6518367536113092  1.0000
  S   S2        1.0  0.8457863745793456  0.9141669078610366  0.8481632461545595  1.0000
  S   S3        1.0  0.8457863738337417  0.5858330918156481  0.3481632459820772  1.0000
  S   S4        1.0  0.15421362507634012  0.08583309214938223  0.1518367534388269  1.0000
  S   S5        1.0  0.3476361166965065  0.4193204396014155  0.8655930521287365  1.0000
  S   S6        1.0  0.6523638831320883  0.9193204392676815  0.6344069488053995  1.0000
  S   S7        1.0  0.6523638834260282  0.5806795604090034  0.13440694863550123  1.0000
  S   S8        1.0  0.34763611699044644  0.08067956074273742  0.36559305195883823  1.0000
  S   S9        1.0  0.9941819883690305  0.5232032021016968  0.7765434402709938  1.0000
  S   S10       1.0  0.005818012032259013  0.023203201757543906  0.7234565594948749  1.0000
  S   S11       1.0  0.005818012326198942  0.47679679790872204  0.22345655932497657  1.0000
  S   S12       1.0  0.9941819876234266  0.976796798252875  0.2765434400985115  1.0000
  S   S13       1.0  0.20136956528371786  0.5314806624702407  0.9960887740090171  1.0000
  S   S14       1.0  0.7986304340780278  0.0314806621260878  0.5039112257542676  1.0000
  S   S15       1.0  0.7986304348388169  0.4685193375401781  0.003911226755220631  1.0000
  S   S16       1.0  0.20136956557765773  0.9685193378843311  0.49608877383911876  1.0000
  S   S17       1.0  0.1450194288268372  0.6880884598442725  0.816371958313698  1.0000
  S   S18       1.0  0.8549805720413015  0.18808845950011957  0.6836280426230221  1.0000
  S   S19       1.0  0.8549805712956976  0.3119115401661464  0.18362804245053987  1.0000
  S   S20       1.0  0.14501942808123328  0.8119115405102993  0.3163719581412157  1.0000
  Cl  Cl1       1.0  0.07680494953572743  0.34865149898200704  0.9229441781379162  1.0000
  Cl  Cl2       1.0  0.9231950513324114  0.848651498648273  0.577055822798804  1.0000
  Cl  Cl3       1.0  0.9231950505868073  0.6513485010284118  0.07705582262632168  1.0000
  Cl  Cl4       1.0  0.07680494879012355  0.1513485013621459  0.42294417796543393  1.0000
