data_image0
_chemical_formula_structural       C28N16S20Cl4
_chemical_formula_sum              "C28 N16 S20 Cl4"
_cell_length_a       9.38059338840069
_cell_length_b       14.34453194849397
_cell_length_c       9.213916747167355
_cell_angle_alpha    90.0
_cell_angle_beta     114.62229127894977
_cell_angle_gamma    90.0

_space_group_name_H-M_alt    "P 1"
_space_group_IT_number       1

loop_
  _space_group_symop_operation_xyz
  'x, y, z'

loop_
  _atom_site_type_symbol
  _atom_site_label
  _atom_site_symmetry_multiplicity
  _atom_site_fract_x
  _atom_site_fract_y
  _atom_site_fract_z
  _atom_site_occupancy
  C   C1        1.0  0.3620947869120471  0.5172971538314337  0.6577764650961999  1.0000
  C   C2        1.0  0.6379052131952976  0.01729715412750362  0.8422235341615977  1.0000
  C   C3        1.0  0.6379052133300936  0.4827028462735562  0.342223534043703  1.0000
  C   C4        1.0  0.36209478752794017  0.9827028459774863  0.15777646617214436  1.0000
  C   C5        1.0  0.43389429632857623  0.5855430731486395  0.5926402906758298  1.0000
  C   C6        1.0  0.5661057042598653  0.08554307274757965  0.9073597097758068  1.0000
  C   C7        1.0  0.5661057043946615  0.41445692695635045  0.40735970965791224  1.0000
  C   C8        1.0  0.43389429539394886  0.9144569273574102  0.09264029054958076  1.0000
  C   C9        1.0  0.3779768334468131  0.6205576865081736  0.43739687249117654  1.0000
  C   C10       1.0  0.6220231663417972  0.12055768680424346  0.06260312771631649  1.0000
  C   C11       1.0  0.622023166207001  0.37944231359681635  0.5626031278342111  1.0000
  C   C12       1.0  0.37797683331201704  0.8794423133007464  0.9373968726090712  1.0000
  C   C13       1.0  0.4266980440161847  0.6812672706986449  0.3561586429742148  1.0000
  C   C14       1.0  0.5733019552913287  0.18126727029758502  0.14384135603943907  1.0000
  C   C15       1.0  0.5733019562259559  0.31873272940634506  0.6438413561656882  1.0000
  C   C16       1.0  0.4266980438813887  0.818732729807405  0.8561586430921094  1.0000
  C   C17       1.0  0.562892956179477  0.6981678165561521  0.48228164721527483  1.0000
  C   C18       1.0  0.43710704360913344  0.19816781615509224  0.017718352992218203  1.0000
  C   C19       1.0  0.4371070434743373  0.30183218354883784  0.5177183531101128  1.0000
  C   C20       1.0  0.5628929560446808  0.801832183252768  0.9822816473331694  1.0000
  C   C21       1.0  0.6671376412685728  0.6898858872170444  0.6347120048491769  1.0000
  C   C22       1.0  0.33286235883877185  0.18988588681598453  0.8652879944086207  1.0000
  C   C23       1.0  0.3328623589735679  0.31011411288794555  0.365287994290726  1.0000
  C   C24       1.0  0.6671376403339454  0.8101141132890054  0.13471200472292785  1.0000
  C   C25       1.0  0.5797963010923931  0.6281830785664683  0.6703799180129015  1.0000
  C   C26       1.0  0.4202036984266251  0.12818307886253813  0.8296200824303809  1.0000
  C   C27       1.0  0.4202036985614211  0.37181692153852175  0.3296200823124862  1.0000
  C   C28       1.0  0.5797963012271892  0.8718169212424518  0.1703799178950068  1.0000
  N   N1        1.0  0.220906635872904  0.48161675018788813  0.5654619160442614  1.0000
  N   N2        1.0  0.7790933647155375  0.9816167505889479  0.9345380844073752  1.0000
  N   N3        1.0  0.7790933648503336  0.518383249219972  0.43453808428948054  1.0000
  N   N4        1.0  0.2209066360077001  0.01838324951604195  0.06546191592636687  1.0000
  N   N5        1.0  0.4408545120568547  0.4892359475512064  0.8099652479808361  1.0000
  N   N6        1.0  0.5591454880504898  0.9892359472551365  0.6900347512769613  1.0000
  N   N7        1.0  0.5591454871158624  0.5107640525537835  0.19003475115071236  1.0000
  N   N8        1.0  0.44085451219165084  0.010764052849853425  0.30996524786294155  1.0000
  N   N9        1.0  0.25089740939424227  0.6352884864226445  0.9706677481538597  1.0000
  N   N10       1.0  0.7491025896436789  0.1352884860215846  0.5293322510955836  1.0000
  N   N11       1.0  0.7491025897784751  0.3647115136823455  0.029332250977688937  1.0000
  N   N12       1.0  0.2508974095290383  0.8647115140834053  0.4706677480359649  1.0000
  N   N13       1.0  0.9975733518137688  0.6255649025161899  0.7184795704050276  1.0000
  N   N14       1.0  0.002426647224152455  0.12556490211513  0.7815204288444155  1.0000
  N   N15       1.0  0.0024266478400455337  0.3744350975888001  0.28152042992036  1.0000
  N   N16       1.0  0.9975733519485648  0.87443509798986  0.21847957028713302  1.0000
  S   S1        1.0  0.15491518252926573  0.40599924493259243  0.652547392595645  1.0000
  S   S2        1.0  0.8450848169897525  0.9059992453336523  0.8474526078476374  1.0000
  S   S3        1.0  0.8450848171245485  0.5940007544752678  0.3474526077297427  1.0000
  S   S4        1.0  0.15491518266406176  0.09400075477133767  0.1525473924777503  1.0000
  S   S5        1.0  0.3505071047574627  0.4142288637464983  0.8712245778147745  1.0000
  S   S6        1.0  0.6494928947615554  0.9142288641475582  0.6287754226285078  1.0000
  S   S7        1.0  0.6494928948963515  0.5857711356613619  0.12877542251061316  1.0000
  S   S8        1.0  0.3505071048922588  0.08577113595743178  0.37122457769687983  1.0000
  S   S9        1.0  0.9865043098301212  0.5220140710681167  0.7806052918542766  1.0000
  S   S10       1.0  0.01349568920780008  0.02201407136418654  0.7193947073951666  1.0000
  S   S11       1.0  0.013495689342596108  0.4779859290368733  0.2193947072772719  1.0000
  S   S12       1.0  0.9865043099649171  0.9779859287408034  0.280605291736382  1.0000
  S   S13       1.0  0.20210215815858001  0.5325875147011746  0.002487616999703485  1.0000
  S   S14       1.0  0.7978978426994536  0.032587514300114744  0.4975123832161438  1.0000
  S   S15       1.0  0.7978978425646576  0.46741248540381536  0.9975123833340384  1.0000
  S   S16       1.0  0.20210215754268698  0.9674124858048752  0.502487615923759  1.0000
  S   S17       1.0  0.14102230466196183  0.6917902386520083  0.8143739936579885  1.0000
  S   S18       1.0  0.8589776959264798  0.19179023825094846  0.6856260067936483  1.0000
  S   S19       1.0  0.8589776949918524  0.3082097614529816  0.18562600666739923  1.0000
  S   S20       1.0  0.14102230479675787  0.8082097618540415  0.31437399354009377  1.0000
  Cl  Cl1       1.0  0.07240035813334489  0.3450309572854085  0.9258670116169585  1.0000
  Cl  Cl2       1.0  0.9275996424550966  0.8450309576864684  0.5741329888346782  1.0000
  Cl  Cl3       1.0  0.9275996425898927  0.6549690428195815  0.07413298871678345  1.0000
  Cl  Cl4       1.0  0.07240035719871755  0.1549690424185216  0.42586701149070955  1.0000
