data_image0
_chemical_formula_structural       H26C34N4O4S2Cl2Br2
_chemical_formula_sum              "H26 C34 N4 O4 S2 Cl2 Br2"
_cell_length_a       8.429465874854559
_cell_length_b       9.739683785456345
_cell_length_c       11.22016764531675
_cell_angle_alpha    93.67236865143897
_cell_angle_beta     102.17535476323587
_cell_angle_gamma    108.52386716294738

_space_group_name_H-M_alt    "P 1"
_space_group_IT_number       1

loop_
  _space_group_symop_operation_xyz
  'x, y, z'

loop_
  _atom_site_type_symbol
  _atom_site_label
  _atom_site_symmetry_multiplicity
  _atom_site_fract_x
  _atom_site_fract_y
  _atom_site_fract_z
  _atom_site_occupancy
  H   H1        1.0  0.29186668374230007  0.5562405229065841  0.17388325874660604  1.0000
  H   H2        1.0  0.7081333159146819  0.4437594769488668  0.8261167406376461  1.0000
  H   H3        1.0  0.16995939113144837  0.4447347795722036  0.32445356328803954  1.0000
  H   H4        1.0  0.8300406085255335  0.5552652202832472  0.6755464360962127  1.0000
  H   H5        1.0  0.1297614374415197  0.4478690482979139  0.5358924249032064  1.0000
  H   H6        1.0  0.8702385622154623  0.5521309515575369  0.4641075744810459  1.0000
  H   H7        1.0  0.49826989271096533  0.8860127743444742  0.6342070952344906  1.0000
  H   H8        1.0  0.5017301081325046  0.11398722550997852  0.3657929041516967  1.0000
  H   H9        1.0  0.5406032649082527  0.8832188493695282  0.42352874880798896  1.0000
  H   H10       1.0  0.4593967347487292  0.11678115048592246  0.5764712505762632  1.0000
  H   H11       1.0  0.7504268031402981  0.050232852070376824  0.28985389565098735  1.0000
  H   H12       1.0  0.24957319683029305  0.9497671479418408  0.7101461046542753  1.0000
  H   H13       1.0  0.1804737449687125  0.8917987949889206  0.34155047927488036  1.0000
  H   H14       1.0  0.8195262546882693  0.10820120486653018  0.6584495201093719  1.0000
  H   H15       1.0  0.9803994756269742  0.642446788697031  0.24837777940097722  1.0000
  H   H16       1.0  0.01960052434361696  0.3575532113151867  0.7516222209042853  1.0000
  H   H17       1.0  0.6663843552207793  0.5953032896393435  0.17387478647573174  1.0000
  H   H18       1.0  0.3336156447498118  0.4046967103728742  0.826125213829531  1.0000
  H   H19       1.0  0.4188492332952637  0.35619718598144545  0.14071497700658459  1.0000
  H   H20       1.0  0.5811507666753274  0.6438028140307722  0.859285023298678  1.0000
  H   H21       1.0  0.3076938517151456  0.09167281404589873  0.07608240240739464  1.0000
  H   H22       1.0  0.6923061479418362  0.9083271858095521  0.9239175969768575  1.0000
  H   H23       1.0  0.7952997296059876  0.12289068035743254  0.9792567371843278  1.0000
  H   H24       1.0  0.20470027036460345  0.8771093196547851  0.020743263120934864  1.0000
  H   H25       1.0  0.929844838396311  0.3872262500057465  0.0477066114965819  1.0000
  H   H26       1.0  0.07015516276076825  0.6127737500054731  0.952293388810616  1.0000
  C   C1        1.0  0.35470668706152775  0.6647050376972643  0.357426379636291  1.0000
  C   C2        1.0  0.6452933129090632  0.3352949623149533  0.6425736206689716  1.0000
  C   C3        1.0  0.24174820941731068  0.5418515964177602  0.39187722321255974  1.0000
  C   C4        1.0  0.7582517905532805  0.45814840359445763  0.6081227770927028  1.0000
  C   C5        1.0  0.2186816288995966  0.5433929082224365  0.5110324006031451  1.0000
  C   C6        1.0  0.7813183722574826  0.45660709178878317  0.4889675997040527  1.0000
  C   C7        1.0  0.3086820845016844  0.6688531405023531  0.5965718267696891  1.0000
  C   C8        1.0  0.6913179163417857  0.33114685935209953  0.40342817261649827  1.0000
  C   C9        1.0  0.42543339527159185  0.7900551302179873  0.5656616317244305  1.0000
  C   C10       1.0  0.57456660438539  0.20994486963746337  0.4343383676598216  1.0000
  C   C11       1.0  0.4488532652699891  0.7879262487031179  0.4462386840042196  1.0000
  C   C12       1.0  0.5511467347006019  0.21207375130909978  0.553761316301043  1.0000
  C   C13       1.0  0.6915543776100369  0.8205084764580082  0.22808968410282215  1.0000
  C   C14       1.0  0.30844562204694503  0.1794915233974427  0.7719103152814301  1.0000
  C   C15       1.0  0.8008086004352053  0.9610268623961987  0.2817848080948077  1.0000
  C   C16       1.0  0.19919139922177653  0.03897313745925212  0.7182151912894444  1.0000
  C   C17       1.0  0.9769021243356736  0.9846203269390397  0.32256691635871626  1.0000
  C   C18       1.0  0.02309787532130824  0.015379672916411144  0.6774330830255358  1.0000
  C   C19       1.0  0.04259739719699479  0.8712383563410011  0.310369505531467  1.0000
  C   C20       1.0  0.957402602459987  0.12876164351444971  0.6896304938527852  1.0000
  C   C21       1.0  0.9296983486673333  0.7313738893116811  0.25722888054245635  1.0000
  C   C22       1.0  0.07030165130325786  0.26862611070053655  0.7427711197628063  1.0000
  C   C23       1.0  0.7535166339230074  0.7045413677673222  0.21562473194418405  1.0000
  C   C24       1.0  0.24648336604758378  0.29545863224489555  0.7843752683610786  1.0000
  C   C25       1.0  0.2805173354160993  0.3006715738991554  0.10412018212943354  1.0000
  C   C26       1.0  0.7194826657409799  0.6993284261120642  0.8958798181777642  1.0000
  C   C27       1.0  0.2163597467150461  0.15033436825830457  0.06709791891615578  1.0000
  C   C28       1.0  0.7836402529419358  0.8496656315971464  0.9329020804680964  1.0000
  C   C29       1.0  0.03808446960736051  0.07982609452204643  0.020597890148621085  1.0000
  C   C30       1.0  0.9619155312361095  0.9201739053324063  0.9794021092375662  1.0000
  C   C31       1.0  0.9343993325352035  0.16830439737622524  0.014546381807860314  1.0000
  C   C32       1.0  0.0656006674353876  0.8316956026359925  0.9854536184974023  1.0000
  C   C33       1.0  0.009850864220365322  0.31792083706826874  0.05300167063659434  1.0000
  C   C34       1.0  0.9901491357502258  0.6820791629439489  0.9469983296686684  1.0000
  N   N1        1.0  0.3658605083279129  0.6563739519142101  0.2342911017623555  1.0000
  N   N2        1.0  0.6341394916426781  0.3436260480980075  0.765708898542907  1.0000
  N   N3        1.0  0.1807493694354475  0.3847115185325665  0.09780113128869164  1.0000
  N   N4        1.0  0.8192506309334695  0.615288482562175  0.9021988690147825  1.0000
  O   O1        1.0  0.4377951328248869  0.9227175169699066  0.20362800829393565  1.0000
  O   O2        1.0  0.5622048671457042  0.0772824830423111  0.796371992011327  1.0000
  O   O3        1.0  0.42156870193147344  0.7293844541525402  0.03955694956322102  1.0000
  O   O4        1.0  0.5784312984374436  0.27061554694220147  0.960443050740253  1.0000
  S   S1        1.0  0.4681868525524157  0.7890806878304616  0.16855883839155664  1.0000
  S   S2        1.0  0.5318131474181753  0.21091931218175616  0.831441161913706  1.0000
  Cl  Cl1       1.0  0.11580986553608594  0.15805358388926158  0.3888242151480532  1.0000
  Cl  Cl2       1.0  0.8841901344345051  0.8419464161229561  0.6111757851572094  1.0000
  Br  Br1       1.0  0.2718606499209601  0.6775115262514712  0.7583105686994632  1.0000
  Br  Br2       1.0  0.7281393500496308  0.3224884737607465  0.2416894316057992  1.0000
