data_image0
_chemical_formula_structural       H84C108N16O8S4Br8
_chemical_formula_sum              "H84 C108 N16 O8 S4 Br8"
_cell_length_a       11.536906518127543
_cell_length_b       14.32901446278261
_cell_length_c       16.733326138205765
_cell_angle_alpha    98.8851753859455
_cell_angle_beta     99.49560092966502
_cell_angle_gamma    110.31158285921562

_space_group_name_H-M_alt    "P 1"
_space_group_IT_number       1

loop_
  _space_group_symop_operation_xyz
  'x, y, z'

loop_
  _atom_site_type_symbol
  _atom_site_label
  _atom_site_symmetry_multiplicity
  _atom_site_fract_x
  _atom_site_fract_y
  _atom_site_fract_z
  _atom_site_occupancy
  H   H1        1.0  0.9538322246972122  0.7227220726415021  0.3458130819687809  1.0000
  H   H2        1.0  0.046167775586131395  0.27727792778538773  0.654186917894471  1.0000
  H   H3        1.0  0.25772034135007715  0.005058942546796336  0.4861444618579684  1.0000
  H   H4        1.0  0.7422796589332664  0.9949410578800936  0.5138555380052836  1.0000
  H   H5        1.0  0.1461963087511548  0.001861394331880265  0.6028267522464952  1.0000
  H   H6        1.0  0.8538036912102991  0.9981386053513006  0.3971732476183384  1.0000
  H   H7        1.0  0.9430318568896111  0.8626886551128026  0.5911400710854127  1.0000
  H   H8        1.0  0.056968143071842836  0.13731134457037825  0.4088599287794209  1.0000
  H   H9        1.0  0.5491133619681693  0.7470907958186186  0.44087807403525414  1.0000
  H   H10       1.0  0.4508866383151745  0.25290920460827143  0.5591219258279979  1.0000
  H   H11       1.0  0.5083085994866617  0.893713693254965  0.4010513015447883  1.0000
  H   H12       1.0  0.4916914007966817  0.1062863071719248  0.5989486983184636  1.0000
  H   H13       1.0  0.7031107463538265  0.8783477948786658  0.20243616367602785  1.0000
  H   H14       1.0  0.2968892536076273  0.12165220480451512  0.7975638361888058  1.0000
  H   H15       1.0  0.749170022008404  0.7332876931487049  0.244366886735283  1.0000
  H   H16       1.0  0.2508299779530498  0.26671230653447586  0.7556331131295505  1.0000
  H   H17       1.0  0.7795994341208979  0.7195091769802178  0.5188769590335741  1.0000
  H   H18       1.0  0.2204005658405559  0.28049082270296305  0.4811230408312594  1.0000
  H   H19       1.0  0.0723238206106976  0.6457348957233425  0.8784026620787849  1.0000
  H   H20       1.0  0.9276761793507563  0.3542651039598384  0.12159733778604859  1.0000
  H   H21       1.0  0.8717017793539031  0.5011379641709256  0.8636506061714747  1.0000
  H   H22       1.0  0.12829822092944052  0.49886203625596426  0.13634939369177732  1.0000
  H   H23       1.0  0.7728864376730211  0.477942702455214  0.9856452650631723  1.0000
  H   H24       1.0  0.22711356228843266  0.5220572972279669  0.014354734801661252  1.0000
  H   H25       1.0  0.07684236013991831  0.7538611717517301  0.13504708568218324  1.0000
  H   H26       1.0  0.9231576401434254  0.24613882867515974  0.8649529141810688  1.0000
  H   H27       1.0  0.2804349306988432  0.7298868969817568  0.22202811518767743  1.0000
  H   H28       1.0  0.7195650692626105  0.270113102701424  0.7779718846771562  1.0000
  H   H29       1.0  0.3338685708546133  0.5806716818319121  0.24366749506812688  1.0000
  H   H30       1.0  0.6661314291068405  0.4193283178512687  0.7563325047967066  1.0000
  H   H31       1.0  0.5256286145153889  0.6072816707241003  0.04150359688234517  1.0000
  H   H32       1.0  0.4743713854460649  0.39271832895908043  0.9584964029824884  1.0000
  H   H33       1.0  0.4725541725765046  0.7572110145213377  0.02109175009830077  1.0000
  H   H34       1.0  0.5274458276059294  0.24278898533871748  0.9789082503889602  1.0000
  H   H35       1.0  0.23990703104921987  0.7822754770290289  0.9569525306494869  1.0000
  H   H36       1.0  0.7600929692341238  0.217724523397861  0.043047469213765115  1.0000
  H   H37       1.0  0.7769308668526215  0.9004094951404874  0.6231071658456856  1.0000
  H   H38       1.0  0.22306913224156902  0.09959050454323244  0.37689283401612206  1.0000
  H   H39       1.0  0.6450614834488747  0.9159726531843863  0.7228303916647748  1.0000
  H   H40       1.0  0.3549385158662959  0.08402734667620788  0.2771696088194603  1.0000
  H   H41       1.0  0.4889154723171083  0.5848256953925748  0.675710598879561  1.0000
  H   H42       1.0  0.5110845279662354  0.4151743050343151  0.3242894009836911  1.0000
  H   H43       1.0  0.6217373473289435  0.583934167470953  0.5749247088265104  1.0000
  H   H44       1.0  0.3782626526325104  0.416065832212228  0.42507529103832314  1.0000
  H   H45       1.0  0.44398025127957197  0.9137066729175632  0.9300591325520439  1.0000
  H   H46       1.0  0.5560197486818819  0.08629332676561759  0.06994086731278956  1.0000
  H   H47       1.0  0.5906060739950332  0.9103488748714522  0.8392981515281013  1.0000
  H   H48       1.0  0.4093939259664207  0.08965112481172875  0.16070184833673232  1.0000
  H   H49       1.0  0.33199597921987345  0.6001657591904762  0.7170362583546745  1.0000
  H   H50       1.0  0.6680040207415804  0.3998342404927047  0.2829637415101591  1.0000
  H   H51       1.0  0.2002225478024869  0.6147905447393308  0.8159568316468632  1.0000
  H   H52       1.0  0.7997774512917034  0.38520945494438896  0.18404316821494435  1.0000
  H   H53       1.0  0.1366350805580744  0.8359072409449481  0.7690148116537363  1.0000
  H   H54       1.0  0.8633649194033793  0.16409275873823279  0.23098518821109712  1.0000
  H   H55       1.0  0.007772020990685581  0.7915990526400362  0.8720538043977114  1.0000
  H   H56       1.0  0.9922279791917483  0.208400947220019  0.12794619608954952  1.0000
  H   H57       1.0  0.8837476965587974  0.03774483939210989  0.835291703694286  1.0000
  H   H58       1.0  0.11625230372454606  0.9622551610347798  0.16470829616896596  1.0000
  H   H59       1.0  0.019806940444532017  0.07220071952108936  0.7352298405355648  1.0000
  H   H60       1.0  0.9801930595169219  0.9277992801620916  0.26477015932926873  1.0000
  H   H61       1.0  0.7300455792033179  0.706224674541838  0.03074011661206817  1.0000
  H   H62       1.0  0.26995442108002565  0.29377532588505195  0.9692598832511838  1.0000
  H   H63       1.0  0.8454669475735798  0.7318374588205788  0.9196319565455147  1.0000
  H   H64       1.0  0.15453305238787418  0.2681625408626021  0.08036804331931886  1.0000
  H   H65       1.0  0.8435789202649142  0.037283759715517395  0.9544067768446474  1.0000
  H   H66       1.0  0.1564210796965396  0.9627162399676633  0.04559322302018619  1.0000
  H   H67       1.0  0.7165511879059051  0.9939668601126754  0.058206844923348086  1.0000
  H   H68       1.0  0.2834488120555488  0.006033139570505544  0.9417931549414854  1.0000
  H   H69       1.0  0.6461974314902883  0.434455961689911  0.5372988963526911  1.0000
  H   H70       1.0  0.35380256901403545  0.5655440389138531  0.4627011041329883  1.0000
  H   H71       1.0  0.8236705754306652  0.5128587959206848  0.473218712171203  1.0000
  H   H72       1.0  0.17632942453078865  0.4871412037624961  0.5267812876936306  1.0000
  H   H73       1.0  0.8148256598822482  0.2085234454257929  0.3881898980768959  1.0000
  H   H74       1.0  0.18517434030018573  0.7914765544342622  0.6118101024103652  1.0000
  H   H75       1.0  0.6417622910658287  0.14498903447811695  0.45820753900616373  1.0000
  H   H76       1.0  0.35823770835025154  0.8550109659493119  0.5417924608540623  1.0000
  H   H77       1.0  0.08470753781725507  0.6154173714998734  0.30371852920613324  1.0000
  H   H78       1.0  0.9152924621441989  0.3845826281833076  0.6962814706587003  1.0000
  H   H79       1.0  0.9124707659934985  0.5511507347608109  0.3753275429839992  1.0000
  H   H80       1.0  0.08752923396795528  0.44884926492237004  0.6246724568808345  1.0000
  H   H81       1.0  0.0009593922387810973  0.2813080929307021  0.37209957050065373  1.0000
  H   H82       1.0  0.9990406068554094  0.7186919067530179  0.627900429361154  1.0000
  H   H83       1.0  0.1623302596194752  0.353441427536956  0.2944700892446855  1.0000
  H   H84       1.0  0.8376697406638685  0.6465585728899339  0.7055299106185665  1.0000
  C   C1        1.0  0.9330961576386576  0.7831143952003452  0.4675540838986795  1.0000
  C   C2        1.0  0.06690384264468607  0.21688560522654468  0.5324459159645725  1.0000
  C   C3        1.0  0.9948062765623785  0.7838417132203852  0.4018137258804455  1.0000
  C   C4        1.0  0.0051937239419450635  0.21615828738337875  0.598186274605234  1.0000
  C   C5        1.0  0.11051499518457396  0.863964762476715  0.4104201214211527  1.0000
  C   C6        1.0  0.8894850049978601  0.13603523738334  0.5895798790661083  1.0000
  C   C7        1.0  0.1670130069741915  0.9437113285200047  0.4811949756357753  1.0000
  C   C8        1.0  0.8329869932082427  0.05628867134005042  0.5188050248514857  1.0000
  C   C9        1.0  0.10455931293697877  0.9418959248966249  0.5459580971449493  1.0000
  C   C10       1.0  0.8954406873463648  0.05810407553026493  0.45404190271830286  1.0000
  C   C11       1.0  0.9891864540778305  0.8629309331351176  0.5394467847860588  1.0000
  C   C12       1.0  0.010813545883623338  0.1370690665480633  0.4605532150787747  1.0000
  C   C13       1.0  0.6569554282859561  0.7349921083189801  0.3469331653491725  1.0000
  C   C14       1.0  0.34304457189647786  0.265007891541075  0.6530668351380885  1.0000
  C   C15       1.0  0.5870646548577863  0.7775999292535624  0.39066427562330275  1.0000
  C   C16       1.0  0.41293534423640416  0.22240007043015747  0.6093357242385048  1.0000
  C   C17       1.0  0.5632892343858792  0.8599120631930887  0.3681954078791847  1.0000
  C   C18       1.0  0.43671076589746444  0.14008793723380125  0.6318045919840674  1.0000
  C   C19       1.0  0.6099423178567379  0.897384998283454  0.30276031662468345  1.0000
  C   C20       1.0  0.3900576815593423  0.1026150021439749  0.6972396832355426  1.0000
  C   C21       1.0  0.6736121877705082  0.8516128505282845  0.25605382103518476  1.0000
  C   C22       1.0  0.3263878121909457  0.14838714915489637  0.7439461788296488  1.0000
  C   C23       1.0  0.6986228833671019  0.7699562632271592  0.2792024136967834  1.0000
  C   C24       1.0  0.30137711681533197  0.23004373663289593  0.7207975867904777  1.0000
  C   C25       1.0  0.08988437451391199  0.7088874077430063  0.007849244656772555  1.0000
  C   C26       1.0  0.9101156257694316  0.2911125926838835  0.9921507552064794  1.0000
  C   C27       1.0  0.02986706586835279  0.6371012180549008  0.9316071732485899  1.0000
  C   C28       1.0  0.970132934093101  0.36289878162828  0.0683928266162436  1.0000
  C   C29       1.0  0.9165352613935065  0.555276536903525  0.9235733247619646  1.0000
  C   C30       1.0  0.08346473856794744  0.4447234627796559  0.07642667510286885  1.0000
  C   C31       1.0  0.8606858437870113  0.5423245049328456  0.9910955948734836  1.0000
  C   C32       1.0  0.13931415639542274  0.4576754949272096  0.008904405613777481  1.0000
  C   C33       1.0  0.9209702137543969  0.6145855206414785  0.06598881310398069  1.0000
  C   C34       1.0  0.07902978642803708  0.3854144792185767  0.9340111873832803  1.0000
  C   C35       1.0  0.03389777499712803  0.697977683089226  0.07603974385795628  1.0000
  C   C36       1.0  0.9661022240970624  0.30202231659449386  0.9239602560038512  1.0000
  C   C37       1.0  0.37108559302981664  0.7503046063608607  0.11912446812747977  1.0000
  C   C38       1.0  0.628914407253527  0.24969539406602925  0.8808755317357723  1.0000
  C   C39       1.0  0.3338579480685227  0.7027114184016121  0.1827044966861531  1.0000
  C   C40       1.0  0.6661420518929312  0.29728858128156893  0.8172955031786805  1.0000
  C   C41       1.0  0.3654245335174955  0.6196734759855459  0.19550383687715658  1.0000
  C   C42       1.0  0.6345754664439583  0.380326523697635  0.804496162987677  1.0000
  C   C43       1.0  0.4323685406699227  0.5857019433847075  0.14329863638669066  1.0000
  C   C44       1.0  0.5676314592915311  0.41429805629847344  0.856701363478143  1.0000
  C   C45       1.0  0.4723306708967915  0.634438875515053  0.08086137378775204  1.0000
  C   C46       1.0  0.527669328197399  0.36556112416866676  0.9191386260740555  1.0000
  C   C47       1.0  0.44133691309518636  0.7175150050675578  0.06872318974491251  1.0000
  C   C48       1.0  0.5586630874091374  0.2824849955362063  0.931276810740767  1.0000
  C   C49       1.0  0.7115051571825337  0.831909344427628  0.6364811344444701  1.0000
  C   C50       1.0  0.28849484191165664  0.16809065525609196  0.36351886541733747  1.0000
  C   C51       1.0  0.6381868435208073  0.840401974965489  0.6931824382191604  1.0000
  C   C52       1.0  0.3618131558952728  0.15959802546193994  0.30681756164106566  1.0000
  C   C53       1.0  0.5552981093379658  0.7511028647656741  0.709500661839529  1.0000
  C   C54       1.0  0.44470189094537776  0.2488971356612157  0.2904993380237229  1.0000
  C   C55       1.0  0.5505536613689699  0.6572937420184629  0.6665824481649162  1.0000
  C   C56       1.0  0.4494463388134641  0.3427062578415922  0.33341755232234477  1.0000
  C   C57       1.0  0.62631845097088  0.6561359342155008  0.6104320006080288  1.0000
  C   C58       1.0  0.3736815489905739  0.34386406546768017  0.38956799925680474  1.0000
  C   C59       1.0  0.4221551164417718  0.8454634241283281  0.8821292205452683  1.0000
  C   C60       1.0  0.5778448838415717  0.15453657629856177  0.11787077931798368  1.0000
  C   C61       1.0  0.5041608672037812  0.8431734833405309  0.8303313238481494  1.0000
  C   C62       1.0  0.49583913307956246  0.1568265170863589  0.1696686760151025  1.0000
  C   C63       1.0  0.4740009829236774  0.7550903293444166  0.7682400177388657  1.0000
  C   C64       1.0  0.5259990172587566  0.24490967051563878  0.23175998274839538  1.0000
  C   C65       1.0  0.36212746351496283  0.6712992116902537  0.7634950525441627  1.0000
  C   C66       1.0  0.6378725367683807  0.32870078873663605  0.23650494731908928  1.0000
  C   C67       1.0  0.2866464205513828  0.6798441205023856  0.8186601710346499  1.0000
  C   C68       1.0  0.7133535785428077  0.32015587918133426  0.1813398288271577  1.0000
  C   C69       1.0  0.07833959231547956  0.8787961625035235  0.7847427782318863  1.0000
  C   C70       1.0  0.9216604071006007  0.12120383792390517  0.21525722162833974  1.0000
  C   C71       1.0  0.005378916693771451  0.853693685232348  0.8425111325863974  1.0000
  C   C72       1.0  0.994621082621399  0.14630631462824606  0.15748886789783761  1.0000
  C   C73       1.0  0.9329964016757242  0.9106918412909757  0.8636819015259616  1.0000
  C   C74       1.0  0.06700359860761954  0.08930815913591429  0.13631809833729044  1.0000
  C   C75       1.0  0.9387950267109111  0.9909495493898586  0.8237289484576107  1.0000
  C   C76       1.0  0.06120497325054276  0.009050450293322288  0.17627105140722285  1.0000
  C   C77       1.0  0.01464519135706381  0.009899835303168273  0.7666876368752872  1.0000
  C   C78       1.0  0.9853548089262799  0.9901001651237217  0.2333123629879648  1.0000
  C   C79       1.0  0.7550477445339427  0.7787079885820501  0.011354248763550094  1.0000
  C   C80       1.0  0.24495225542751106  0.22129201110113073  0.9886457511012835  1.0000
  C   C81       1.0  0.8219318628490427  0.7938686129573249  0.9492876469107143  1.0000
  C   C82       1.0  0.1780681371124111  0.206131386725856  0.0507123529541192  1.0000
  C   C83       1.0  0.8570759571136705  0.8883831126471309  0.9264832371642774  1.0000
  C   C84       1.0  0.14292404230240968  0.11161688778029794  0.07351676269594865  1.0000
  C   C85       1.0  0.8184452165777086  0.9615590457198739  0.9673791259147624  1.0000
  C   C86       1.0  0.18155478338374512  0.03844095396330694  0.032620873950071134  1.0000
  C   C87       1.0  0.7488027748969915  0.9380733399514366  0.02713853874983628  1.0000
  C   C88       1.0  0.25119722538635214  0.061926660475453296  0.9728614611134158  1.0000
  C   C89       1.0  0.6870358640473178  0.3867104333391367  0.504036025257434  1.0000
  C   C90       1.0  0.3129641362360258  0.6132895670877531  0.49596397460581804  1.0000
  C   C91       1.0  0.786371792733188  0.4304800654442209  0.46714194263669206  1.0000
  C   C92       1.0  0.21362820744924607  0.5695199344158344  0.5328580578505691  1.0000
  C   C93       1.0  0.8371708857465848  0.36791421034236116  0.4239247564780256  1.0000
  C   C94       1.0  0.16282911421486906  0.6320857893408197  0.576075243386808  1.0000
  C   C95       1.0  0.7830519287777152  0.26302340025543847  0.42134544474470276  1.0000
  C   C96       1.0  0.21694807053745527  0.7369765996051557  0.5786545557395323  1.0000
  C   C97       1.0  0.6843177626077117  0.2267030219262245  0.46063734403852563  1.0000
  C   C98       1.0  0.3156822378966121  0.7732969786775398  0.5393626564471539  1.0000
  C   C99       1.0  0.06298249309143379  0.5407423148947353  0.31916396987287293  1.0000
  C   C100      1.0  0.93701750741289  0.4592576857090287  0.6808360306128065  1.0000
  C   C101      1.0  0.9673538745076448  0.5052637868958135  0.36102932724012143  1.0000
  C   C102      1.0  0.03264612545380902  0.49473621278736735  0.6389706726247122  1.0000
  C   C103      1.0  0.9401073075527601  0.40964384704910667  0.38128495515234734  1.0000
  C   C104      1.0  0.05989269262967389  0.5903561528109486  0.6187150453349136  1.0000
  C   C105      1.0  0.013968199436706005  0.35514194579438985  0.3573551098259837  1.0000
  C   C106      1.0  0.9860318005247478  0.6448580538887911  0.64264489003885  1.0000
  C   C107      1.0  0.10619445306919661  0.39633373519476806  0.31444438862697627  1.0000
  C   C108      1.0  0.8938055468922572  0.6036662644884129  0.6855556112378572  1.0000
  N   N1        1.0  0.8187384153423677  0.7033269234424633  0.46702674809309147  1.0000
  N   N2        1.0  0.1812615849409759  0.2966730769844266  0.5329732517701604  1.0000
  N   N3        1.0  0.20264712107594307  0.7914488109646935  0.010644153074708876  1.0000
  N   N4        1.0  0.7973528792074006  0.20855118946219642  0.9893558467885432  1.0000
  N   N5        1.0  0.7065764318142874  0.7417337637111514  0.5956724760292005  1.0000
  N   N6        1.0  0.29342356846905615  0.25826623671573845  0.4043275238340515  1.0000
  N   N7        1.0  0.3144427743784992  0.765450196832704  0.8767434641665269  1.0000
  N   N8        1.0  0.6855572255829546  0.23454980285047689  0.12325653569830662  1.0000
  N   N9        1.0  0.08382163454238245  0.9553780797455075  0.746477417944449  1.0000
  N   N10       1.0  0.9161783654190716  0.0446219199376735  0.25352258192038457  1.0000
  N   N11       1.0  0.7182233200511996  0.8487984831533476  0.050520856916956666  1.0000
  N   N12       1.0  0.28177667991025424  0.15120151652983319  0.9494791429478768  1.0000
  N   N13       1.0  0.6353745451884097  0.2863685012037168  0.5015724209629349  1.0000
  N   N14       1.0  0.3646254550949339  0.713631499223173  0.4984275789003173  1.0000
  N   N15       1.0  0.13215582496795425  0.4878873665561497  0.2950487089509978  1.0000
  N   N16       1.0  0.8678441749934996  0.5121126331270311  0.7049512909138358  1.0000
  O   O1        1.0  0.6002220880659787  0.5775917871101728  0.41605960760157246  1.0000
  O   O2        1.0  0.3997779113501016  0.42240821331725603  0.5839403922586537  1.0000
  O   O3        1.0  0.7483266372634033  0.5929326431107717  0.3208197816989426  1.0000
  O   O4        1.0  0.2516733626980505  0.4070673565724092  0.6791802181658909  1.0000
  O   O5        1.0  0.41872088587890033  0.9192410566016196  0.06537181365618926  1.0000
  O   O6        1.0  0.5812791144044434  0.08075894382527021  0.9346281862070628  1.0000
  O   O7        1.0  0.27263549687424393  0.8849986575826462  0.16182767619301455  1.0000
  O   O8        1.0  0.7273645030872099  0.11500134210053488  0.838172323671819  1.0000
  S   S1        1.0  0.7011738254310866  0.6406650005697795  0.3838429853218196  1.0000
  S   S2        1.0  0.29882617453036714  0.35933499911340144  0.616157014543014  1.0000
  S   S3        1.0  0.32092926948636125  0.8479665227962152  0.09423635350490409  1.0000
  S   S4        1.0  0.6790707304750926  0.15203347688696567  0.9057636463599295  1.0000
  Br  Br1       1.0  0.19596194634980865  0.8643108830270412  0.32192770395411335  1.0000
  Br  Br2       1.0  0.8040380538326254  0.13568911683301402  0.6780722965331477  1.0000
  Br  Br3       1.0  0.5881241610498198  0.015148465820833554  0.2766175560121455  1.0000
  Br  Br4       1.0  0.4118758389116341  0.9848515338623474  0.7233824438526881  1.0000
  Br  Br5       1.0  0.8445497310236687  0.5999737496350545  0.15862419268831215  1.0000
  Br  Br6       1.0  0.15545026893778519  0.40002625004812653  0.8413758071765214  1.0000
  Br  Br7       1.0  0.4671327811869136  0.46759968922167455  0.1547039125832628  1.0000
  Br  Br8       1.0  0.5328672187745402  0.5324003104615064  0.8452960872815707  1.0000
