data_image0
_chemical_formula_structural       H72C72N8O12
_chemical_formula_sum              "H72 C72 N8 O12"
_cell_length_a       5.384602878552003
_cell_length_b       7.825593981726109
_cell_length_c       35.05648223871061
_cell_angle_alpha    90.0
_cell_angle_beta     90.0
_cell_angle_gamma    90.0

_space_group_name_H-M_alt    "P 1"
_space_group_IT_number       1

loop_
  _space_group_symop_operation_xyz
  'x, y, z'

loop_
  _atom_site_type_symbol
  _atom_site_label
  _atom_site_symmetry_multiplicity
  _atom_site_fract_x
  _atom_site_fract_y
  _atom_site_fract_z
  _atom_site_occupancy
  H   H1        1.0  0.6817378055161525  0.9077029394301908  0.04691005186436201  1.0000
  H   H2        1.0  0.8182621948872191  0.5922970602389508  0.5469100518827522  1.0000
  H   H3        1.0  0.31826219475276196  0.9077029394301908  0.4530899481540282  1.0000
  H   H4        1.0  0.18173780538169526  0.5922970602389508  0.9530899481724184  1.0000
  H   H5        1.0  0.31826219475276196  0.09229706034923692  0.9530899481724184  1.0000
  H   H6        1.0  0.18173780538169526  0.407702939540477  0.4530899481540282  1.0000
  H   H7        1.0  0.6817378055161525  0.09229706034923692  0.5469100518827522  1.0000
  H   H8        1.0  0.8182621948872191  0.407702939540477  0.04691005186436201  1.0000
  H   H9        1.0  0.3658455515534218  0.17035699438446272  0.020759826529211038  1.0000
  H   H10       1.0  0.13415444858103542  0.32964300550525116  0.5207598265476013  1.0000
  H   H11       1.0  0.6341544487154926  0.17035699438446272  0.4792401734891792  1.0000
  H   H12       1.0  0.8658455516878789  0.32964300550525116  0.9792401735075694  1.0000
  H   H13       1.0  0.6341544487154926  0.8296430053949649  0.9792401735075694  1.0000
  H   H14       1.0  0.8658455516878789  0.6703569942741766  0.4792401734891792  1.0000
  H   H15       1.0  0.3658455515534218  0.8296430053949649  0.5207598265476013  1.0000
  H   H16       1.0  0.13415444858103542  0.6703569942741766  0.020759826529211038  1.0000
  H   H17       1.0  0.21611252050456328  0.1321638999435888  0.08391451914566654  1.0000
  H   H18       1.0  0.28388747962989397  0.3678360999461251  0.5839145191640568  1.0000
  H   H19       1.0  0.7838874797643512  0.1321638999435888  0.4160854808727237  1.0000
  H   H20       1.0  0.7161125206390205  0.3678360999461251  0.916085480891114  1.0000
  H   H21       1.0  0.7838874797643512  0.867836099835839  0.916085480891114  1.0000
  H   H22       1.0  0.7161125206390205  0.6321638998333027  0.4160854808727237  1.0000
  H   H23       1.0  0.21611252050456328  0.867836099835839  0.5839145191640568  1.0000
  H   H24       1.0  0.28388747962989397  0.6321638998333027  0.08391451914566654  1.0000
  H   H25       1.0  0.34295010452035246  0.786559050261679  0.1603215973505138  1.0000
  H   H26       1.0  0.15704989561410476  0.7134409494074626  0.6603215973689041  1.0000
  H   H27       1.0  0.6570498938914148  0.786559050261679  0.33967840266787647  1.0000
  H   H28       1.0  0.8429501046548097  0.7134409494074626  0.8396784026862667  1.0000
  H   H29       1.0  0.6570498938914148  0.21344094951774864  0.8396784026862667  1.0000
  H   H30       1.0  0.8429501046548097  0.2865590503719652  0.33967840266787647  1.0000
  H   H31       1.0  0.34295010452035246  0.21344094951774864  0.6603215973689041  1.0000
  H   H32       1.0  0.15704989561410476  0.2865590503719652  0.1603215973505138  1.0000
  H   H33       1.0  0.6731326379587521  0.5141870443823432  0.13235764668014394  1.0000
  H   H34       1.0  0.8268673624446194  0.9858129552867985  0.6323576464132803  1.0000
  H   H35       1.0  0.3268673623101622  0.5141870443823432  0.3676423533382463  1.0000
  H   H36       1.0  0.17313263782429497  0.9858129552867985  0.8676423533566365  1.0000
  H   H37       1.0  0.3268673623101622  0.48581295539708463  0.8676423533566365  1.0000
  H   H38       1.0  0.17313263782429497  0.01418704449262925  0.3676423533382463  1.0000
  H   H39       1.0  0.6731326379587521  0.48581295539708463  0.6323576464132803  1.0000
  H   H40       1.0  0.8268673624446194  0.01418704449262925  0.13235764668014394  1.0000
  H   H41       1.0  0.6613735182189827  0.3930538598325729  0.1982103455984285  1.0000
  H   H42       1.0  0.8386264821843888  0.10694614005714098  0.6982103456168187  1.0000
  H   H43       1.0  0.3386264820499316  0.3930538598325729  0.30178965441996175  1.0000
  H   H44       1.0  0.16137351808452557  0.10694614005714098  0.801789654438352  1.0000
  H   H45       1.0  0.3386264820499316  0.606946141224713  0.801789654438352  1.0000
  H   H46       1.0  0.16137351808452557  0.8930538597222867  0.30178965441996175  1.0000
  H   H47       1.0  0.6613735182189827  0.606946141224713  0.6982103456168187  1.0000
  H   H48       1.0  0.8386264821843888  0.8930538597222867  0.1982103455984285  1.0000
  H   H49       1.0  0.32442046691282833  0.6725497505096867  0.2262611007570319  1.0000
  H   H50       1.0  0.1755795332216289  0.827450249159455  0.7262611007754222  1.0000
  H   H51       1.0  0.6755795333560861  0.6725497505096867  0.27373889926135836  1.0000
  H   H52       1.0  0.8244204670472856  0.827450249159455  0.7737388992797486  1.0000
  H   H53       1.0  0.6755795333560861  0.3274502492697411  0.7737388992797486  1.0000
  H   H54       1.0  0.8244204670472856  0.1725497506199728  0.27373889926135836  1.0000
  H   H55       1.0  0.32442046691282833  0.3274502492697411  0.7262611007754222  1.0000
  H   H56       1.0  0.1755795332216289  0.1725497506199728  0.2262611007570319  1.0000
  H   H57       1.0  0.868661155798702  0.6842470044451393  0.08844333578274163  1.0000
  H   H58       1.0  0.6313388446046697  0.8157529952240024  0.5884433358011318  1.0000
  H   H59       1.0  0.1313388444702125  0.6842470044451393  0.4115566642356486  1.0000
  H   H60       1.0  0.3686611556642447  0.8157529952240024  0.9115566642540389  1.0000
  H   H61       1.0  0.1313388444702125  0.31575299533428847  0.9115566642540389  1.0000
  H   H62       1.0  0.3686611556642447  0.18424700455542542  0.4115566642356486  1.0000
  H   H63       1.0  0.868661155798702  0.31575299533428847  0.5884433358011318  1.0000
  H   H64       1.0  0.6313388446046697  0.18424700455542542  0.08844333578274163  1.0000
  H   H65       1.0  0.05898363484985696  0.8411382861634362  0.10075735568526673  1.0000
  H   H66       1.0  0.44101636528460025  0.6588617135057054  0.600757355703657  1.0000
  H   H67       1.0  0.9410163635619103  0.8411382861634362  0.3992426443331235  1.0000
  H   H68       1.0  0.5589836349843141  0.6588617135057054  0.8992426443515137  1.0000
  H   H69       1.0  0.9410163635619103  0.15886171361599152  0.8992426443515137  1.0000
  H   H70       1.0  0.5589836349843141  0.34113828627372234  0.3992426443331235  1.0000
  H   H71       1.0  0.05898363484985696  0.15886171361599152  0.600757355703657  1.0000
  H   H72       1.0  0.44101636528460025  0.34113828627372234  0.10075735568526673  1.0000
  C   C1        1.0  0.2057903386735892  0.09479444266240535  0.01198495408464159  1.0000
  C   C2        1.0  0.294209661460868  0.4052055572273085  0.5119849541030318  1.0000
  C   C3        1.0  0.7942096615953251  0.09479444266240535  0.4880150459337486  1.0000
  C   C4        1.0  0.7057903388080464  0.4052055572273085  0.988015045952139  1.0000
  C   C5        1.0  0.7942096615953251  0.9052055571170224  0.988015045952139  1.0000
  C   C6        1.0  0.7057903388080464  0.5947944425521192  0.4880150459337486  1.0000
  C   C7        1.0  0.2057903386735892  0.9052055571170224  0.5119849541030318  1.0000
  C   C8        1.0  0.294209661460868  0.5947944425521192  0.01198495408464159  1.0000
  C   C9        1.0  0.8222208953672315  0.9481751771593121  0.026384333536427863  1.0000
  C   C10       1.0  0.6777791050361401  0.5518248237876877  0.5263843335548181  1.0000
  C   C11       1.0  0.17777910490168286  0.9481751771593121  0.47361566648196235  1.0000
  C   C12       1.0  0.3222208952327743  0.5518248237876877  0.9736156665003526  1.0000
  C   C13       1.0  0.17777910490168286  0.0518248238979739  0.9736156665003526  1.0000
  C   C14       1.0  0.3222208952327743  0.44817517599174  0.47361566648196235  1.0000
  C   C15       1.0  0.8222208953672315  0.0518248238979739  0.5263843335548181  1.0000
  C   C16       1.0  0.6777791050361401  0.44817517599174  0.026384333536427863  1.0000
  C   C17       1.0  0.02817482058041708  0.04255541761783873  0.038744014894346576  1.0000
  C   C18       1.0  0.47182517955404013  0.4574445822718751  0.5387440149127368  1.0000
  C   C19       1.0  0.9718251796884974  0.04255541761783873  0.46125598512404364  1.0000
  C   C20       1.0  0.5281748207148743  0.4574445822718751  0.961255985142434  1.0000
  C   C21       1.0  0.9718251796884974  0.957444582161589  0.961255985142434  1.0000
  C   C22       1.0  0.5281748207148743  0.5425554175075527  0.46125598512404364  1.0000
  C   C23       1.0  0.02817482058041708  0.957444582161589  0.5387440149127368  1.0000
  C   C24       1.0  0.47182517955404013  0.5425554175075527  0.038744014894346576  1.0000
  C   C25       1.0  0.19242613306306303  0.7009840892345944  0.16839979321944465  1.0000
  C   C26       1.0  0.30757386707139417  0.7990159104345471  0.6683997932378349  1.0000
  C   C27       1.0  0.8075738672058513  0.7009840892345944  0.3316002067989456  1.0000
  C   C28       1.0  0.6924261331975203  0.7990159104345471  0.8316002068173359  1.0000
  C   C29       1.0  0.8075738672058513  0.2990159105448333  0.8316002068173359  1.0000
  C   C30       1.0  0.6924261331975203  0.20098408934488057  0.3316002067989456  1.0000
  C   C31       1.0  0.19242613306306303  0.2990159105448333  0.6683997932378349  1.0000
  C   C32       1.0  0.30757386707139417  0.20098408934488057  0.16839979321944465  1.0000
  C   C33       1.0  0.8184772618152953  0.5452615596929831  0.15273006069296155  1.0000
  C   C34       1.0  0.6815227385880764  0.9547384399761585  0.6527300607113518  1.0000
  C   C35       1.0  0.18152273845361916  0.5452615596929831  0.34726993932542866  1.0000
  C   C36       1.0  0.318477261680838  0.9547384399761585  0.8472699393438189  1.0000
  C   C37       1.0  0.18152273845361916  0.45473844008644465  0.8472699393438189  1.0000
  C   C38       1.0  0.318477261680838  0.04526155980326922  0.34726993932542866  1.0000
  C   C39       1.0  0.8184772618152953  0.45473844008644465  0.6527300607113518  1.0000
  C   C40       1.0  0.6815227385880764  0.04526155980326922  0.15273006069296155  1.0000
  C   C41       1.0  0.8093350202962256  0.4797080079500843  0.18963099476818782  1.0000
  C   C42       1.0  0.690664980107146  0.020291991939629585  0.6896309947865781  1.0000
  C   C43       1.0  0.1906649799726888  0.4797080079500843  0.31036900525020245  1.0000
  C   C44       1.0  0.30933502016176845  0.020291991939629585  0.8103690052685927  1.0000
  C   C45       1.0  0.1906649799726888  0.5202919918293435  0.8103690052685927  1.0000
  C   C46       1.0  0.30933502016176845  0.9797080078397982  0.31036900525020245  1.0000
  C   C47       1.0  0.8093350202962256  0.5202919918293435  0.6896309947865781  1.0000
  C   C48       1.0  0.690664980107146  0.9797080078397982  0.18963099476818782  1.0000
  C   C49       1.0  0.1832402671569591  0.6368241441655745  0.20550291729056766  1.0000
  C   C50       1.0  0.3167597329774981  0.8631758555035671  0.705502917308958  1.0000
  C   C51       1.0  0.816759731254808  0.6368241441655745  0.29449708272782255  1.0000
  C   C52       1.0  0.6832402672914164  0.8631758555035671  0.7944970827462128  1.0000
  C   C53       1.0  0.816759731254808  0.36317585561385324  0.7944970827462128  1.0000
  C   C54       1.0  0.6832402672914164  0.13682414427586068  0.29449708272782255  1.0000
  C   C55       1.0  0.1832402671569591  0.36317585561385324  0.705502917308958  1.0000
  C   C56       1.0  0.3167597329774981  0.13682414427586068  0.20550291729056766  1.0000
  C   C57       1.0  0.011242396396794068  0.6542451259234255  0.1416355436404056  1.0000
  C   C58       1.0  0.48875760373766314  0.8457548737457159  0.6416355436587958  1.0000
  C   C59       1.0  0.9887576038721204  0.6542451259234255  0.35836445637798464  1.0000
  C   C60       1.0  0.5112423965312513  0.8457548737457159  0.8583644563963748  1.0000
  C   C61       1.0  0.9887576038721204  0.34575487385600207  0.8583644563963748  1.0000
  C   C62       1.0  0.5112423965312513  0.1542451260337118  0.35836445637798464  1.0000
  C   C63       1.0  0.011242396396794068  0.34575487385600207  0.6416355436587958  1.0000
  C   C64       1.0  0.48875760373766314  0.1542451260337118  0.1416355436404056  1.0000
  C   C65       1.0  0.9941962240750415  0.5234449844402069  0.21563054582963292  1.0000
  C   C66       1.0  0.5058037763283302  0.9765550152289347  0.7156305458480231  1.0000
  C   C67       1.0  0.005803776193872973  0.5234449844402069  0.2843694539035034  1.0000
  C   C68       1.0  0.49419622394058427  0.9765550152289347  0.7843694539218936  1.0000
  C   C69       1.0  0.005803776193872973  0.47655501533922084  0.7843694539218936  1.0000
  C   C70       1.0  0.49419622394058427  0.02344498455049305  0.2843694539035034  1.0000
  C   C71       1.0  0.9941962240750415  0.47655501533922084  0.7156305458480231  1.0000
  C   C72       1.0  0.5058037763283302  0.02344498455049305  0.21563054582963292  1.0000
  N   N1        1.0  0.02795075763144721  0.7119740767295795  0.10311838094263277  1.0000
  N   N2        1.0  0.47204924250301  0.7880259229395622  0.603118380961023  1.0000
  N   N3        1.0  0.9720492426374672  0.7119740767295795  0.3968816190757575  1.0000
  N   N4        1.0  0.5279507577659044  0.7880259229395622  0.8968816188088937  1.0000
  N   N5        1.0  0.9720492426374672  0.28802592304984825  0.8968816188088937  1.0000
  N   N6        1.0  0.5279507577659044  0.2119740768398656  0.3968816190757575  1.0000
  N   N7        1.0  0.02795075763144721  0.28802592304984825  0.603118380961023  1.0000
  N   N8        1.0  0.47204924250301  0.2119740768398656  0.10311838094263277  1.0000
  O   O1        1.0  0.04604021793092124  0.08002991996038358  0.07694573379132102  1.0000
  O   O2        1.0  0.45395978220353594  0.4199700799293303  0.5769457338097113  1.0000
  O   O3        1.0  0.9539597823379933  0.08002991996038358  0.4230542662270692  1.0000
  O   O4        1.0  0.5460402180653784  0.4199700799293303  0.9230542662454594  1.0000
  O   O5        1.0  0.9539597823379933  0.9199700798190441  0.9230542662454594  1.0000
  O   O6        1.0  0.5460402180653784  0.5800299198500976  0.4230542662270692  1.0000
  O   O7        1.0  0.04604021793092124  0.9199700798190441  0.5769457338097113  1.0000
  O   O8        1.0  0.45395978220353594  0.5800299198500976  0.07694573379132102  1.0000
  O   O9        1.0  0.0  0.43534715805030094  0.25000000000919514  1.0000
  O   O10       1.0  0.5000000001344572  0.06465284183941296  0.7500000000275854  1.0000
  O   O11       1.0  2.689144462664217e-10  0.5646528417291269  0.7500000000275854  1.0000
  O   O12       1.0  0.5000000001344572  0.9353471579400148  0.25000000000919514  1.0000
