data_image0
_chemical_formula_structural       H100C64N2O10F12P2
_chemical_formula_sum              "H100 C64 N2 O10 F12 P2"
_cell_length_a       10.961863579100791
_cell_length_b       12.805815204631765
_cell_length_c       13.184598979596016
_cell_angle_alpha    76.86143475577748
_cell_angle_beta     68.47211655396042
_cell_angle_gamma    85.54649655160036

_space_group_name_H-M_alt    "P 1"
_space_group_IT_number       1

loop_
  _space_group_symop_operation_xyz
  'x, y, z'

loop_
  _atom_site_type_symbol
  _atom_site_label
  _atom_site_symmetry_multiplicity
  _atom_site_fract_x
  _atom_site_fract_y
  _atom_site_fract_z
  _atom_site_occupancy
  H   H1        1.0  0.8873731843620581  0.05491283316346376  0.9656474698471246  1.0000
  H   H2        1.0  0.11262681583260126  0.9450871669916006  0.034352530190640905  1.0000
  H   H3        1.0  0.8723644023393123  0.9362339897425512  0.06897692392198741  1.0000
  H   H4        1.0  0.12763559820625514  0.06376601056363149  0.931023075281332  1.0000
  H   H5        1.0  0.9514885398482535  0.03848900444250968  0.17650754135870084  1.0000
  H   H6        1.0  0.048511459433004264  0.9615109957085644  0.8234924586825216  1.0000
  H   H7        1.0  0.955294318415368  0.1576150931697352  0.07554154756034412  1.0000
  H   H8        1.0  0.04470568177929134  0.8423849069853291  0.9244584524774214  1.0000
  H   H9        1.0  0.7130943096846165  0.13930267363489324  0.12140837357918743  1.0000
  H   H10       1.0  0.2869056905100429  0.8606973265201712  0.878591626458578  1.0000
  H   H11       1.0  0.7114550188644735  0.015122620253760058  0.21392137414846654  1.0000
  H   H12       1.0  0.2885449813301859  0.9848773799013042  0.786078625889299  1.0000
  H   H13       1.0  0.7477106579859696  0.2329643580063952  0.241676774191202  1.0000
  H   H14       1.0  0.25228934129528796  0.7670356421446787  0.7583232258500205  1.0000
  H   H15       1.0  0.8048577783234792  0.1255994987347183  0.3084698750749777  1.0000
  H   H16       1.0  0.19514222187118022  0.8744005014203461  0.6915301249627879  1.0000
  H   H17       1.0  0.5879443930028733  0.04128671247481626  0.3851498191928467  1.0000
  H   H18       1.0  0.41205560719178597  0.958713287680248  0.6148501808449189  1.0000
  H   H19       1.0  0.6117769277063426  0.1542921351205107  0.43520189329164105  1.0000
  H   H20       1.0  0.3882230724883168  0.8457078650345535  0.5647981067461244  1.0000
  H   H21       1.0  0.4872938655479756  0.07995145416022902  0.23065847192671085  1.0000
  H   H22       1.0  0.5127061346466838  0.9200485459948353  0.7693415281110546  1.0000
  H   H23       1.0  0.23571713860493237  0.35442350629459496  0.23150877144631904  1.0000
  H   H24       1.0  0.7642828606763252  0.645576493856479  0.7684912285949034  1.0000
  H   H25       1.0  0.4802098487174807  0.3043948752836036  0.42918184720908803  1.0000
  H   H26       1.0  0.5197901514771788  0.6956051248714608  0.5708181528286775  1.0000
  H   H27       1.0  0.17123346335982717  0.3067501695337758  0.11896362755975835  1.0000
  H   H28       1.0  0.8287665368348323  0.6932498306212883  0.8810363724780073  1.0000
  H   H29       1.0  0.2320218343945975  0.23985710556364653  0.006178375448427944  1.0000
  H   H30       1.0  0.76797816615097  0.7601428947425363  0.9938216237548915  1.0000
  H   H31       1.0  0.3345496424395558  0.33121074677344525  0.021195653484818094  1.0000
  H   H32       1.0  0.6654503577551035  0.668789253381619  0.9788043465529475  1.0000
  H   H33       1.0  0.23603566093566697  0.02546219575594315  0.25580943586627075  1.0000
  H   H34       1.0  0.763964339324606  0.9745378036115969  0.7441905641935659  1.0000
  H   H35       1.0  0.17152056151955022  0.057103569256891036  0.14726812161574362  1.0000
  H   H36       1.0  0.8284794377617075  0.942896430894183  0.852731878425479  1.0000
  H   H37       1.0  0.11401625667334589  0.12525216773295056  0.25903708136266923  1.0000
  H   H38       1.0  0.8859837435869272  0.8747478316345895  0.7409629186971673  1.0000
  H   H39       1.0  0.455715496816009  0.04798438781988552  0.09822505645093275  1.0000
  H   H40       1.0  0.5442845024652486  0.9520156123311884  0.9017749435902898  1.0000
  H   H41       1.0  0.5071893888049297  0.17629145455182296  0.009121113113780645  1.0000
  H   H42       1.0  0.49281061138972976  0.8237085456032412  0.9908788869239848  1.0000
  H   H43       1.0  0.38922562896329027  0.10127719628704591  0.9935393657677131  1.0000
  H   H44       1.0  0.6107743712969828  0.8987228030804941  0.006460634292123477  1.0000
  H   H45       1.0  0.405415634040489  0.5524995377012473  0.21960263615222333  1.0000
  H   H46       1.0  0.5945843661541703  0.447500462453817  0.7803973638855422  1.0000
  H   H47       1.0  0.26549112085011906  0.6101528330449103  0.3051518805199848  1.0000
  H   H48       1.0  0.7345088794101536  0.3898471663226297  0.6948481195398518  1.0000
  H   H49       1.0  0.24601079834186904  0.5189938045810243  0.2292344367059845  1.0000
  H   H50       1.0  0.7539892018527902  0.48100619557403995  0.770765563331781  1.0000
  H   H51       1.0  0.1322317896146536  0.36515938062587716  0.5264621622028866  1.0000
  H   H52       1.0  0.8677682109965275  0.6348406188927814  0.4735378370225039  1.0000
  H   H53       1.0  0.09113802922671044  0.4083034176431277  0.4045043274715422  1.0000
  H   H54       1.0  0.9088619709679489  0.5916965825119365  0.5954956725662234  1.0000
  H   H55       1.0  0.10916982322711306  0.5033032725585299  0.4768981607054019  1.0000
  H   H56       1.0  0.8908301769675462  0.4966967275965343  0.5231018393323636  1.0000
  H   H57       1.0  0.4710309451150042  0.493325464782313  0.3942344606688537  1.0000
  H   H58       1.0  0.528969055079655  0.5066745353727513  0.6057655393689119  1.0000
  H   H59       1.0  0.3585034504524328  0.4172848179226455  0.5201640865707694  1.0000
  H   H60       1.0  0.6414965497422265  0.5827151822324189  0.47983591346699617  1.0000
  H   H61       1.0  0.32585353465750533  0.5532965192385912  0.4677647868533343  1.0000
  H   H62       1.0  0.6741464646237523  0.44670348091248263  0.5322352131878884  1.0000
  H   H63       1.0  0.07096569369927763  0.3484534014664811  0.8756756029739733  1.0000
  H   H64       1.0  0.9290343055819799  0.6515465986845927  0.12432439706724928  1.0000
  H   H65       1.0  0.6807528733367869  0.2677003779896125  0.9105555627342439  1.0000
  H   H66       1.0  0.31924712692348595  0.7322996213779275  0.08944443732559279  1.0000
  H   H67       1.0  0.6552634208967004  0.3017641501262211  0.07558952672860271  1.0000
  H   H68       1.0  0.34473657936357255  0.6982358492413189  0.9244104733312338  1.0000
  H   H69       1.0  0.6354589297674897  0.42753135553572463  0.9916049522743355  1.0000
  H   H70       1.0  0.3645410704927832  0.5724686438318153  0.008395047785501153  1.0000
  H   H71       1.0  0.7220938883293999  0.5219936040250696  0.09802578692910187  1.0000
  H   H72       1.0  0.2779061118652594  0.47800639612999457  0.9019742131086637  1.0000
  H   H73       1.0  0.5760851959582625  0.4456450132337408  0.18479754706374268  1.0000
  H   H74       1.0  0.42391480423639677  0.5543549869213235  0.8152024529740229  1.0000
  H   H75       1.0  0.6671146613049949  0.4274103498807509  0.3521624195664944  1.0000
  H   H76       1.0  0.3328853389552781  0.572589649486789  0.6478375804933422  1.0000
  H   H77       1.0  0.778529528864346  0.5216518061444074  0.24282213033291034  1.0000
  H   H78       1.0  0.22147047139592688  0.4783481932231326  0.7571778697269262  1.0000
  H   H79       1.0  0.9628661581889603  0.3917680479153344  0.24350138968764634  1.0000
  H   H80       1.0  0.03713384200569894  0.6082319522397297  0.7564986103501192  1.0000
  H   H81       1.0  0.8859562759748325  0.43778737248247246  0.3709623845905204  1.0000
  H   H82       1.0  0.11404372421982685  0.5622126276725918  0.6290376154472451  1.0000
  H   H83       1.0  0.031778577856836895  0.23656227103823238  0.34740157871112876  1.0000
  H   H84       1.0  0.9682214223378224  0.7634377291168318  0.6525984213266367  1.0000
  H   H85       1.0  0.9495041162798468  0.2738658431089592  0.47840910360538963  1.0000
  H   H86       1.0  0.0504958839148127  0.7261341570461052  0.5215908964323759  1.0000
  H   H87       1.0  0.8553382502612664  0.0971266003335109  0.568587651421273  1.0000
  H   H88       1.0  0.14466174999900658  0.9028733990340291  0.43141234863856365  1.0000
  H   H89       1.0  0.7426972235015717  0.9432200774198264  0.5449140609347228  1.0000
  H   H90       1.0  0.25730277577968574  0.05677992273124744  0.4550859391064997  1.0000
  H   H91       1.0  0.9170838813964546  0.9176055750609614  0.5134204792255734  1.0000
  H   H92       1.0  0.0829161187982048  0.08239442509410279  0.4865795208121921  1.0000
  H   H93       1.0  0.8072759801622325  0.8003332207906347  0.4411772265225352  1.0000
  H   H94       1.0  0.1927240191190251  0.19966677936043928  0.5588227735186874  1.0000
  H   H95       1.0  0.790625180998078  0.9129671507437854  0.3404472944923292  1.0000
  H   H96       1.0  0.20937481919658127  0.08703284941127874  0.6595527055454364  1.0000
  H   H97       1.0  0.16548388889465526  0.2356972027251538  0.7361557760371205  1.0000
  H   H98       1.0  0.834516110452216  0.7643027966383956  0.26384422402617325  1.0000
  H   H99       1.0  0.7733209119222617  0.15348812082304347  0.7742412160233988  1.0000
  H   H100      1.0  0.2266790883380111  0.8465118785444965  0.2257587840364379  1.0000
  C   C1        1.0  0.9277314825251479  0.011972012418560093  0.028610652090069095  1.0000
  C   C2        1.0  0.07226851766951117  0.988027987736504  0.9713893479476965  1.0000
  C   C3        1.0  0.9061809380406608  0.07912722137226996  0.11606527832022642  1.0000
  C   C4        1.0  0.09381906215399849  0.9208727787827944  0.8839347217175391  1.0000
  C   C5        1.0  0.7605946088306874  0.09341328282698691  0.17756039035511717  1.0000
  C   C6        1.0  0.23940539136397188  0.9065867173280774  0.8224396096826484  1.0000
  C   C7        1.0  0.6033000639197899  0.12846850975282015  0.36428721246061735  1.0000
  C   C8        1.0  0.3966999362748695  0.871531490402244  0.6357127875771481  1.0000
  C   C9        1.0  0.4957560203017607  0.18818115098726668  0.3307564498585115  1.0000
  C   C10       1.0  0.5042439798928986  0.8118188491677977  0.6692435501792541  1.0000
  C   C11       1.0  0.45032863155619357  0.1543408005638157  0.257292571242069  1.0000
  C   C12       1.0  0.5496713686384658  0.8456591995912486  0.7427074287956965  1.0000
  C   C13       1.0  0.35718956222974585  0.2141475127494596  0.21867095754898275  1.0000
  C   C14       1.0  0.6428104379649134  0.7858524874056046  0.7813290424887829  1.0000
  C   C15       1.0  0.308260802544449  0.30662090927947483  0.25990388769431866  1.0000
  C   C16       1.0  0.6917391976502102  0.6933790908755894  0.740096112343447  1.0000
  C   C17       1.0  0.34973446090276405  0.3413803493185943  0.33609576138469527  1.0000
  C   C18       1.0  0.6502655393575087  0.6586196500489455  0.6639042386751414  1.0000
  C   C19       1.0  0.44469945149127627  0.28080627765360805  0.3705505518519794  1.0000
  C   C20       1.0  0.5553005490542913  0.7191937226525746  0.62944944735134  1.0000
  C   C21       1.0  0.3104919469587245  0.17564483282445667  0.13676671146079047  1.0000
  C   C22       1.0  0.6895080532359349  0.8243551673306075  0.8632332885769749  1.0000
  C   C23       1.0  0.2585655856361798  0.26899974160149703  0.06759755389150988  1.0000
  C   C24       1.0  0.7414344149750012  0.7310002579171613  0.9324024453338806  1.0000
  C   C25       1.0  0.20129529535444163  0.09129756378943371  0.20391053281489083  1.0000
  C   C26       1.0  0.7987047049058312  0.9087024355781063  0.7960894672449458  1.0000
  C   C27       1.0  0.4227279705152784  0.12200653834183676  0.05534409822914414  1.0000
  C   C28       1.0  0.5772720287659792  0.8779934618092371  0.9446559018120785  1.0000
  C   C29       1.0  0.29410975350091434  0.4440668705121553  0.3768436223570425  1.0000
  C   C30       1.0  0.7058902457803432  0.5559331296389186  0.6231563776841801  1.0000
  C   C31       1.0  0.30352847168248387  0.5361093285011359  0.2764867636673378  1.0000
  C   C32       1.0  0.6964715285121754  0.4638906716539284  0.7235132363704277  1.0000
  C   C33       1.0  0.148277832475011  0.42824893950779747  0.45070488625010946  1.0000
  C   C34       1.0  0.8517221677196484  0.5717510606472667  0.5492951137876562  1.0000
  C   C35       1.0  0.36666787685735525  0.4777246475346201  0.4440774705318967  1.0000
  C   C36       1.0  0.6333321234029176  0.52227535183292  0.55592252952794  1.0000
  C   C37       1.0  0.006827871011717365  0.3061790760143044  0.8516770336100579  1.0000
  C   C38       1.0  0.9931721291829418  0.69382092414076  0.14832296642770765  1.0000
  C   C39       1.0  0.8710352137485112  0.3165267991467825  0.9015111123856041  1.0000
  C   C40       1.0  0.12896478553274632  0.6834732010042912  0.09848888765561845  1.0000
  C   C41       1.0  0.7867085083924502  0.25994569705354964  0.8749059348744911  1.0000
  C   C42       1.0  0.21329149180220902  0.7400543031015144  0.12509406516327445  1.0000
  C   C43       1.0  0.6935672533729921  0.38452628363082775  0.041047164567017375  1.0000
  C   C44       1.0  0.30643274682166727  0.6154737165242364  0.9589528354707482  1.0000
  C   C45       1.0  0.6806760832531623  0.44016649602770885  0.1335668774463932  1.0000
  C   C46       1.0  0.31932391694149703  0.5598335041273554  0.8664331225913723  1.0000
  C   C47       1.0  0.7601671268773501  0.43552216367738544  0.2802015985086714  1.0000
  C   C48       1.0  0.23983287373383094  0.564477835841273  0.7197984007167192  1.0000
  C   C49       1.0  0.8711986729952909  0.3888880469783352  0.31723168898133014  1.0000
  C   C50       1.0  0.1288013272649823  0.6111119523892047  0.6827683110785064  1.0000
  C   C51       1.0  0.9377147549329247  0.23058813850158486  0.41917683318920657  1.0000
  C   C52       1.0  0.06228524532734799  0.7694118608659551  0.5808231668706301  1.0000
  C   C53       1.0  0.902951211978523  0.11843442959034389  0.4779950106041589  1.0000
  C   C54       1.0  0.0970487882161363  0.8815655705647203  0.5220049894336067  1.0000
  C   C55       1.0  0.8385897271568256  0.947531989978108  0.4768698674241353  1.0000
  C   C56       1.0  0.16141027303783373  0.05246801017695627  0.5231301326136302  1.0000
  C   C57       1.0  0.8470843325068118  0.8807913954596517  0.39454186496117205  1.0000
  C   C58       1.0  0.15291566768784742  0.11920860469541253  0.6054581350765934  1.0000
  C   C59       1.0  0.025413518730795073  0.812544209798639  0.25441691113445153  1.0000
  C   C60       1.0  0.9745864814638643  0.1874557903564252  0.745583088903314  1.0000
  C   C61       1.0  0.05944030813032688  0.24222531961079105  0.773428902484647  1.0000
  C   C62       1.0  0.9405596920643323  0.7577746805442733  0.22657109755311844  1.0000
  C   C63       1.0  0.8386687337040015  0.1958244915236613  0.7968568651668243  1.0000
  C   C64       1.0  0.1613312656428699  0.8041755078398883  0.20314313489646915  1.0000
  N   N1        1.0  0.7358592243595544  0.14987453002510961  0.27128130458462707  1.0000
  N   N2        1.0  0.2641407758351049  0.8501254701299547  0.7287186954531385  1.0000
  O   O1        1.0  0.8295880023469403  0.3850436371940119  0.9739849995635139  1.0000
  O   O2        1.0  0.1704119979133327  0.614956362173528  0.026015000496322764  1.0000
  O   O3        1.0  0.7519279781718219  0.3805470755515974  0.19942906899539156  1.0000
  O   O4        1.0  0.24807202208845114  0.6194529238159426  0.800570931064445  1.0000
  O   O5        1.0  0.8377426469559689  0.28102141169512285  0.3770626020003831  1.0000
  O   O6        1.0  0.16225735323869028  0.7189785884599414  0.6229373980373825  1.0000
  O   O7        1.0  0.8734741529440685  0.05566298723343623  0.4196744453782518  1.0000
  O   O8        1.0  0.126525846337189  0.9443370129176376  0.5803255546629708  1.0000
  O   O9        1.0  0.9842225007394988  0.8769210977217353  0.3307414928327325  1.0000
  O   O10       1.0  0.01577749854175877  0.12307890242933844  0.6692585072084899  1.0000
  F   F1        1.0  0.5780013111169958  0.10095759751095897  0.7224724734962159  1.0000
  F   F2        1.0  0.4219986891432772  0.8990424018565809  0.2775275265636206  1.0000
  F   F3        1.0  0.5174995394457915  0.2593692301831794  0.7848795080740746  1.0000
  F   F4        1.0  0.48250046074886793  0.7406307699718848  0.2151204919636909  1.0000
  F   F5        1.0  0.3740536623817333  0.2961107900340283  0.6886263466979666  1.0000
  F   F6        1.0  0.6259463368995244  0.7038892101170454  0.3113736533432558  1.0000
  F   F7        1.0  0.4337508907409656  0.1364843577244874  0.6266696162168153  1.0000
  F   F8        1.0  0.5662491094536937  0.8635156424305769  0.3733303838209503  1.0000
  F   F9        1.0  0.35829305545318607  0.1346659635630443  0.8154693698155239  1.0000
  F   F10       1.0  0.6417069447414733  0.8653340365920199  0.1845306302222416  1.0000
  F   F11       1.0  0.5927234831411731  0.2612511939593271  0.594534563793783  1.0000
  F   F12       1.0  0.40727651711909985  0.7387488054082129  0.40546543626605364  1.0000
  P   P1        1.0  0.4767911308082164  0.1992795649357861  0.7056463393731045  1.0000
  P   P2        1.0  0.5232088694520565  0.8007204344317539  0.294353660686732  1.0000
