data_image0
_chemical_formula_structural       H42C48N4O10Cl2
_chemical_formula_sum              "H42 C48 N4 O10 Cl2"
_cell_length_a       5.271243779095229
_cell_length_b       12.893925461735144
_cell_length_c       15.556804989776918
_cell_angle_alpha    82.08913273311124
_cell_angle_beta     87.22071110636186
_cell_angle_gamma    80.91402896881468

_space_group_name_H-M_alt    "P 1"
_space_group_IT_number       1

loop_
  _space_group_symop_operation_xyz
  'x, y, z'

loop_
  _atom_site_type_symbol
  _atom_site_label
  _atom_site_symmetry_multiplicity
  _atom_site_fract_x
  _atom_site_fract_y
  _atom_site_fract_z
  _atom_site_occupancy
  H   H1        1.0  0.7152269523426847  0.20887720006407057  0.6517937302190931  1.0000
  H   H2        1.0  0.28477304724293445  0.7911227999165055  0.3482062697658651  1.0000
  H   H3        1.0  0.5536507364456679  0.09867979134788525  0.6496159048899123  1.0000
  H   H4        1.0  0.44634926503418915  0.9013202086371913  0.3503840951017543  1.0000
  H   H5        1.0  0.6768778568540059  0.12191234357261897  0.748092554616705  1.0000
  H   H6        1.0  0.323122144625851  0.8780876564124577  0.2519074453749614  1.0000
  H   H7        1.0  0.3650466351884234  0.313651525266225  0.9467468860626544  1.0000
  H   H8        1.0  0.6349533662914336  0.6863484747188516  0.05325311392901197  1.0000
  H   H9        1.0  0.18577475639651128  0.4339733150386016  0.9764508323931096  1.0000
  H   H10       1.0  0.8142252450833458  0.5660266849464749  0.023549167598556874  1.0000
  H   H11       1.0  0.5287831454823063  0.4065267272428558  0.9875845168560081  1.0000
  H   H12       1.0  0.4712168541033128  0.5934732727377201  0.01241548312895022  1.0000
  H   H13       1.0  0.2084967756055695  0.18381298183704708  0.9266050290428869  1.0000
  H   H14       1.0  0.7915032239800498  0.816187018143529  0.07339497094207141  1.0000
  H   H15       1.0  0.798612502343618  0.4843408646522272  0.6013450060391584  1.0000
  H   H16       1.0  0.20138749724200095  0.5156591353283488  0.3986549939457998  1.0000
  H   H17       1.0  0.43418644856171557  0.5303636332359752  0.7050700008036437  1.0000
  H   H18       1.0  0.5658135510239035  0.46963636674460074  0.2949299991813146  1.0000
  H   H19       1.0  0.783191407067981  0.2925631125859547  0.9061171225386615  1.0000
  H   H20       1.0  0.21680859251763823  0.7074368873946213  0.09388287744629684  1.0000
  H   H21       1.0  0.4864994545084963  0.12572475876326178  0.8732198310765805  1.0000
  H   H22       1.0  0.5135005450771227  0.8742752412173141  0.12678016890837782  1.0000
  H   H23       1.0  0.19182150076497964  0.9061634169718459  0.9494630383240307  1.0000
  H   H24       1.0  0.8081784988206394  0.0938365830087301  0.05053696166092753  1.0000
  H   H25       1.0  0.1947633694697364  0.16084588327890342  0.5382233139672723  1.0000
  H   H26       1.0  0.8052366320101205  0.8391541167061731  0.4617766860243942  1.0000
  H   H27       1.0  0.42594992633508133  0.050343114629401886  0.4311048184501513  1.0000
  H   H28       1.0  0.5740500732505377  0.9496568853511741  0.568895181534807  1.0000
  H   H29       1.0  0.7076814802522948  0.39084498733367506  0.4711355472871092  1.0000
  H   H30       1.0  0.2923185193333242  0.6091550126469011  0.528864452697849  1.0000
  H   H31       1.0  0.9575097254083462  0.27341024919634394  0.3715954027880668  1.0000
  H   H32       1.0  0.04249027607151093  0.7265897507887327  0.6284045972035996  1.0000
  H   H33       1.0  0.25095653175111154  0.6306803300730978  0.8902790015495269  1.0000
  H   H34       1.0  0.7490434677634454  0.369319669800319  0.10972099908461752  1.0000
  H   H35       1.0  0.7171277914845988  0.9000002671123164  0.9127514768521169  1.0000
  H   H36       1.0  0.28287220999525814  0.09999973287276005  0.08724852313954957  1.0000
  H   H37       1.0  0.5752715091353234  0.6872728305326383  0.7334263772191838  1.0000
  H   H38       1.0  0.4247284923445335  0.3127271694524382  0.2665736227724827  1.0000
  H   H39       1.0  0.4415678740736858  0.8558116804219047  0.7995314112635202  1.0000
  H   H40       1.0  0.5584321274061711  0.14418831956317185  0.2004685887281462  1.0000
  H   H41       1.0  0.9884101886884865  0.5712179271188039  0.7820364313103154  1.0000
  H   H42       1.0  0.011589812403205831  0.42878207354414466  0.21796356933276387  1.0000
  C   C1        1.0  0.33534302350707373  0.2263153297355524  0.7099839121581398  1.0000
  C   C2        1.0  0.6646569779727832  0.7736846702495243  0.2900160878335267  1.0000
  C   C3        1.0  0.20340979388148164  0.22206678476363695  0.7885074322158732  1.0000
  C   C4        1.0  0.7965902057041376  0.777933215216939  0.21149256776908518  1.0000
  C   C5        1.0  0.9854244662161944  0.3055437513572003  0.7814557994648458  1.0000
  C   C6        1.0  0.01457553336942472  0.6944562486233756  0.2185442005201125  1.0000
  C   C7        1.0  0.7856491378989704  0.3346584518986827  0.8403926769726401  1.0000
  C   C8        1.0  0.21435086168664863  0.6653415480818932  0.15960732301231825  1.0000
  C   C9        1.0  0.5927121829822756  0.4174534389221827  0.8112362373015717  1.0000
  C   C10       1.0  0.40728781660334334  0.5825465610583933  0.18876376268338668  1.0000
  C   C11       1.0  0.5956023748318026  0.46959644917557297  0.7255037069679499  1.0000
  C   C12       1.0  0.4043976247538165  0.530403550805003  0.2744962930170085  1.0000
  C   C13       1.0  0.797005269297763  0.4431800716121556  0.6673134880851368  1.0000
  C   C14       1.0  0.20299473028785614  0.5568199283684202  0.3326865118998217  1.0000
  C   C15       1.0  0.9922718004493947  0.3613415674382824  0.6967805643925018  1.0000
  C   C16       1.0  0.007728199136224531  0.6386584325422935  0.3032194355924565  1.0000
  C   C17       1.0  0.2928426893144256  0.35404740668411006  0.5702319667016205  1.0000
  C   C18       1.0  0.7071573102711936  0.6459525932964658  0.42976803328333785  1.0000
  C   C19       1.0  0.44161683267497204  0.28127691793808435  0.5133704664365506  1.0000
  C   C20       1.0  0.5583831669106472  0.7187230820424917  0.4866295335484077  1.0000
  C   C21       1.0  0.36172394229598076  0.18567111537252903  0.5017405317769265  1.0000
  C   C22       1.0  0.6382760572896382  0.814328884608047  0.4982594682080318  1.0000
  C   C23       1.0  0.4922764076794243  0.12279341853211467  0.4427318800643652  1.0000
  C   C24       1.0  0.5077235938004329  0.8772065814529619  0.5572681199273013  1.0000
  C   C25       1.0  0.7106375562683206  0.153723532152846  0.3983888901351741  1.0000
  C   C26       1.0  0.2893624433172985  0.8462764678277299  0.6016111098497843  1.0000
  C   C27       1.0  0.7896988452390407  0.24992739003276582  0.4080821185850483  1.0000
  C   C28       1.0  0.21030115434657842  0.7500726099478103  0.5919178813999101  1.0000
  C   C29       1.0  0.6515649535598004  0.31454860871559237  0.46439533376423053  1.0000
  C   C30       1.0  0.34843504602581865  0.6854513912649837  0.5356046662207277  1.0000
  C   C31       1.0  0.5820014176553836  0.16081689366879334  0.688417659320979  1.0000
  C   C32       1.0  0.4179985819302354  0.8391831063117827  0.3115823406639793  1.0000
  C   C33       1.0  0.27688504560538285  0.1470249504926212  0.8681849752825291  1.0000
  C   C34       1.0  0.7231149539802362  0.8529750494879549  0.1318150247024292  1.0000
  C   C35       1.0  0.161766815238639  0.04495575946762175  0.8789322583935207  1.0000
  C   C36       1.0  0.8382331843469799  0.9550442405129542  0.12106774159143772  1.0000
  C   C37       1.0  0.3674637295192625  0.3984052785591394  0.9479690047709469  1.0000
  C   C38       1.0  0.6325362700663565  0.6015947214214366  0.05203099521401133  1.0000
  C   C39       1.0  0.06902430265399892  0.6757858221240907  0.8681270345550103  1.0000
  C   C40       1.0  0.9309756969316202  0.3242141778564854  0.13187296542994806  1.0000
  C   C41       1.0  0.921538482783275  0.6455532878344459  0.8075554574633669  1.0000
  C   C42       1.0  0.07846151680234408  0.35444671214613016  0.1924445425215914  1.0000
  C   C43       1.0  0.6926561502283315  0.7098824204829092  0.7812799753020484  1.0000
  C   C44       1.0  0.3073438512515254  0.2901175795021673  0.2187200246896182  1.0000
  C   C45       1.0  0.6175007291059977  0.8028527140886459  0.8182758756013129  1.0000
  C   C46       1.0  0.3824992704796215  0.19714728589193004  0.18172412438364538  1.0000
  C   C47       1.0  0.7659444297931471  0.8298549109339944  0.8803422530014623  1.0000
  C   C48       1.0  0.2340555697924719  0.17014508904658152  0.11965774698349613  1.0000
  N   N1        1.0  0.2072658055504814  0.31143835802994513  0.6520834224395392  1.0000
  N   N2        1.0  0.7927341940351377  0.6885616419506309  0.3479165775454191  1.0000
  N   N3        1.0  0.9900224212206953  0.7665334495800358  0.9041988972276783  1.0000
  N   N4        1.0  0.009977578364923977  0.23346655040054012  0.09580110275727999  1.0000
  O   O1        1.0  0.2344760117048788  0.44909103169188214  0.5437422663107374  1.0000
  O   O2        1.0  0.7655239878807403  0.5509089682886938  0.4562577336742209  1.0000
  O   O3        1.0  0.3859749043934341  0.45351782720127626  0.8625132921543126  1.0000
  O   O4        1.0  0.6140250951921848  0.5464821727792998  0.13748670783064565  1.0000
  O   O5        1.0  0.2684528503218069  0.9758664570944304  0.9438278762461917  1.0000
  O   O6        1.0  0.7315471492638121  0.024133542886145602  0.0561721237387666  1.0000
  O   O7        1.0  0.9893701726956412  0.02787273033180772  0.8346508368110221  1.0000
  O   O8        1.0  0.010629826889977921  0.9721272696487684  0.16534916317393625  1.0000
  O   O9        1.0  0.13193274351530285  0.7915295545754271  0.9636084905493867  1.0000
  O   O10       1.0  0.868067256070316  0.20847044540514892  0.0363915094355717  1.0000
  Cl  Cl1       1.0  0.8826092671993983  0.07205528544795145  0.3294133331268535  1.0000
  Cl  Cl2       1.0  0.11739073238622093  0.9279447145326245  0.6705866668581048  1.0000
