data_image0
_chemical_formula_structural       H88C80N16O16I12
_chemical_formula_sum              "H88 C80 N16 O16 I12"
_cell_length_a       13.968689135892978
_cell_length_b       15.859309149690494
_cell_length_c       11.590609287983051
_cell_angle_alpha    90.0
_cell_angle_beta     100.11278157483721
_cell_angle_gamma    90.0

_space_group_name_H-M_alt    "P 1"
_space_group_IT_number       1

loop_
  _space_group_symop_operation_xyz
  'x, y, z'

loop_
  _atom_site_type_symbol
  _atom_site_label
  _atom_site_symmetry_multiplicity
  _atom_site_fract_x
  _atom_site_fract_y
  _atom_site_fract_z
  _atom_site_occupancy
  H   H1        1.0  0.6694183476179163  0.8918443153165996  0.49284092674101626  1.0000
  H   H2        1.0  0.16941834762012534  0.3918443156221139  0.4928409268201674  1.0000
  H   H3        1.0  0.33058165198070855  0.8918443153165996  0.0071590736533449625  1.0000
  H   H4        1.0  0.8305816519784996  0.3918443156221139  0.007159073574193802  1.0000
  H   H5        1.0  0.33058165217669605  0.10815568470291627  0.507159073334575  1.0000
  H   H6        1.0  0.830581652174487  0.608155684397402  0.5071590732554239  1.0000
  H   H7        1.0  0.6694183478139037  0.10815568470291627  0.9928409264222463  1.0000
  H   H8        1.0  0.16941834781611279  0.608155684397402  0.9928409265013975  1.0000
  H   H9        1.0  0.5149360395537191  0.83454362324845  0.6162440558433304  1.0000
  H   H10       1.0  0.014936039555928177  0.33454362292341994  0.6162440559224815  1.0000
  H   H11       1.0  0.48506396043688066  0.83454362324845  0.8837559439134909  1.0000
  H   H12       1.0  0.9850639604346716  0.33454362292341994  0.8837559438343398  1.0000
  H   H13       1.0  0.48506396011724323  0.16545637677106573  0.38375594335589197  1.0000
  H   H14       1.0  0.9850639602386841  0.6654563770960958  0.38375594415310976  1.0000
  H   H15       1.0  0.5149360393577317  0.16545637677106573  0.1162440561621003  1.0000
  H   H16       1.0  0.0149360393599407  0.6654563770960958  0.11624405624125146  1.0000
  H   H17       1.0  0.6412839155511308  0.8129752865213313  0.831688110966068  1.0000
  H   H18       1.0  0.14128391555333988  0.3129752868268457  0.8316881110452191  1.0000
  H   H19       1.0  0.3587160844394689  0.8129752865213313  0.6683118887907533  1.0000
  H   H20       1.0  0.8587160845609099  0.3129752868268457  0.668311889587971  1.0000
  H   H21       1.0  0.35871608424348145  0.18702471286764  0.16831188910952322  1.0000
  H   H22       1.0  0.8587160842412724  0.6870247131926701  0.16831188903037203  1.0000
  H   H23       1.0  0.6412839152314934  0.18702471286764  0.331688110408469  1.0000
  H   H24       1.0  0.14128391523370246  0.6870247131926701  0.3316881104876202  1.0000
  H   H25       1.0  0.8153193383986758  0.7659497961320129  0.8688398576438754  1.0000
  H   H26       1.0  0.3153193384008848  0.26594979580698275  0.8688398577230265  1.0000
  H   H27       1.0  0.18468066159192406  0.7659497961320129  0.631160142112946  1.0000
  H   H28       1.0  0.6846806615897151  0.26594979580698275  0.6311601420337948  1.0000
  H   H29       1.0  0.18468066139593659  0.23405020388750292  0.13116014243171592  1.0000
  H   H30       1.0  0.6846806613937276  0.734050204212533  0.13116014235256476  1.0000
  H   H31       1.0  0.8153193389192828  0.23405020388750292  0.3688398579675809  1.0000
  H   H32       1.0  0.3153193389214918  0.734050204212533  0.36883985804673197  1.0000
  H   H33       1.0  0.9161093950268199  0.7861989297461507  0.7108714178911312  1.0000
  H   H34       1.0  0.4161093949053789  0.28619892942112046  0.7108714170939132  1.0000
  H   H35       1.0  0.08389060508742997  0.7861989297461507  0.7891285827420593  1.0000
  H   H36       1.0  0.583890605085221  0.28619892942112046  0.7891285826629082  1.0000
  H   H37       1.0  0.08389060548438707  0.21380107027336515  0.28912858218939574  1.0000
  H   H38       1.0  0.583890605482178  0.7138010705983953  0.28912858211024456  1.0000
  H   H39       1.0  0.9161093947071823  0.21380107027336515  0.21087141733353199  1.0000
  H   H40       1.0  0.41610939470939134  0.7138010705983953  0.21087141741268317  1.0000
  H   H41       1.0  0.8386893221715446  0.8505426858561017  0.5211122900480128  1.0000
  H   H42       1.0  0.3386893221737536  0.35054268616161605  0.5211122901271641  1.0000
  H   H43       1.0  0.16131067781905523  0.8505426858561017  0.9788877097088085  1.0000
  H   H44       1.0  0.6613106778168462  0.35054268616161605  0.9788877096296572  1.0000
  H   H45       1.0  0.16131067762306775  0.14945731416341412  0.4788877100275784  1.0000
  H   H46       1.0  0.6613106776208587  0.6494573138578997  0.4788877099484272  1.0000
  H   H47       1.0  0.838689321975557  0.14945731416341412  0.02111229036678282  1.0000
  H   H48       1.0  0.3386893219777661  0.6494573138578997  0.021112290445933983  1.0000
  H   H49       1.0  0.5260725781209784  0.9185677290542195  0.15699718631665646  1.0000
  H   H50       1.0  0.026072578123187442  0.4185677293597338  0.15699718639580765  1.0000
  H   H51       1.0  0.47392742219424094  0.9185677290542195  0.3430028140826403  1.0000
  H   H52       1.0  0.9739274221920319  0.4185677293597338  0.3430028140034891  1.0000
  H   H53       1.0  0.47392742239022845  0.08143227096529636  0.8430028137638704  1.0000
  H   H54       1.0  0.9739274223880194  0.581432270659782  0.8430028136847192  1.0000
  H   H55       1.0  0.5260725776003713  0.08143227096529636  0.656997185992951  1.0000
  H   H56       1.0  0.02607257760258039  0.581432270659782  0.6569971860721022  1.0000
  H   H57       1.0  0.7988421496831856  0.9387126904131595  0.3814402540455855  1.0000
  H   H58       1.0  0.2988421496853946  0.43871269008812935  0.3814402541247367  1.0000
  H   H59       1.0  0.20115784979178933  0.9387126904131595  0.11855974547240673  1.0000
  H   H60       1.0  0.7011578497895803  0.43871269008812935  0.11855974539325556  1.0000
  H   H61       1.0  0.20115785011142673  0.06128730960635627  0.6185597460300059  1.0000
  H   H62       1.0  0.7011578501092177  0.5612873093008419  0.6185597459508547  1.0000
  H   H63       1.0  0.7988421500028231  0.06128730960635627  0.8814402546031845  1.0000
  H   H64       1.0  0.2988421498813821  0.5612873093008419  0.8814402538059668  1.0000
  H   H65       1.0  0.879465759612673  0.9359250172817064  0.20891216074953833  1.0000
  H   H66       1.0  0.37946575961488205  0.4359250175872208  0.20891216082868955  1.0000
  H   H67       1.0  0.12053424057889643  0.9359250172817064  0.2910878387733894  1.0000
  H   H68       1.0  0.6205342405766874  0.4359250175872208  0.2910878386942382  1.0000
  H   H69       1.0  0.12053424018193931  0.06407498273780933  0.7910878393260528  1.0000
  H   H70       1.0  0.6205342401797304  0.564074982432295  0.7910878392469017  1.0000
  H   H71       1.0  0.879465759215716  0.06407498273780933  0.7089121613022019  1.0000
  H   H72       1.0  0.37946575921792497  0.564074982432295  0.708912161381353  1.0000
  H   H73       1.0  0.7796896083294921  0.9256579256661063  0.006813938029640985  1.0000
  H   H74       1.0  0.27968960833170114  0.42565792597162055  0.006813938108792147  1.0000
  H   H75       1.0  0.22031039186207735  0.9256579256661063  0.4931860614932868  1.0000
  H   H76       1.0  0.7203103918598682  0.42565792597162055  0.49318606141413557  1.0000
  H   H77       1.0  0.22031039146512024  0.07434207435340962  0.9931860620459503  1.0000
  H   H78       1.0  0.7203103914629112  0.5743420740478953  0.993186061966799  1.0000
  H   H79       1.0  0.7796896086491295  0.07434207435340962  0.5068139385872401  1.0000
  H   H80       1.0  0.2796896086513385  0.5743420740478953  0.5068139386663911  1.0000
  H   H81       1.0  0.595975911386456  0.9225171022210338  0.9889869715828852  1.0000
  H   H82       1.0  0.09597591138866508  0.4225171025265481  0.9889869716620364  1.0000
  H   H83       1.0  0.40402408788754923  0.9225171022210338  0.5110130281690007  1.0000
  H   H84       1.0  0.9040240878853402  0.4225171025265481  0.5110130280898494  1.0000
  H   H85       1.0  0.4040240884081563  0.07748289779848207  0.011013028492706061  1.0000
  H   H86       1.0  0.9040240884059473  0.5774828974929678  0.011013028413554901  1.0000
  H   H87       1.0  0.5959759119070631  0.07748289779848207  0.4889869719065907  1.0000
  H   H88       1.0  0.09597591190927213  0.5774828974929678  0.48898697198574187  1.0000
  C   C1        1.0  0.6492668026200235  0.8598225944959349  0.6598560107378002  1.0000
  C   C2        1.0  0.14926680249858262  0.3598225948014493  0.6598560099405824  1.0000
  C   C3        1.0  0.3507331974942262  0.8598225944959349  0.8401439898953902  1.0000
  C   C4        1.0  0.8507331974920174  0.3598225948014493  0.840143989816239  1.0000
  C   C5        1.0  0.3507331971745888  0.14017740552358082  0.3401439893377911  1.0000
  C   C6        1.0  0.8507331971723798  0.6401774052180665  0.34014398925864  1.0000
  C   C7        1.0  0.6492668023003862  0.14017740552358082  0.15985601018020112  1.0000
  C   C8        1.0  0.14926680230259515  0.6401774052180665  0.15985601025935228  1.0000
  C   C9        1.0  0.6879436443769088  0.822658967478077  0.7667643094237625  1.0000
  C   C10       1.0  0.18794364437911787  0.3226589677835913  0.7667643095029137  1.0000
  C   C11       1.0  0.312056355613691  0.822658967478077  0.7332356903330589  1.0000
  C   C12       1.0  0.8120563556114819  0.3226589677835913  0.7332356902539077  1.0000
  C   C13       1.0  0.312056356010648  0.17734103254143882  0.23323568978039538  1.0000
  C   C14       1.0  0.812056356132089  0.6773410322359245  0.2332356905776132  1.0000
  C   C15       1.0  0.6879436441809214  0.17734103254143882  0.26676430974253235  1.0000
  C   C16       1.0  0.18794364418313042  0.6773410322359245  0.2667643098216835  1.0000
  C   C17       1.0  0.783754094573657  0.7950660183861842  0.7855850641125188  1.0000
  C   C18       1.0  0.283754094575866  0.295066018061154  0.7855850641916701  1.0000
  C   C19       1.0  0.21624590541694289  0.7950660183861842  0.7144149356443026  1.0000
  C   C20       1.0  0.7162459054147338  0.295066018061154  0.7144149355651512  1.0000
  C   C21       1.0  0.21624590581389994  0.20493398163333165  0.21441493509163895  1.0000
  C   C22       1.0  0.7162459059353409  0.7049339819583618  0.21441493588885677  1.0000
  C   C23       1.0  0.7837540943776695  0.20493398163333165  0.2855850644312888  1.0000
  C   C24       1.0  0.28375409437987853  0.7049339819583618  0.2855850645104399  1.0000
  C   C25       1.0  0.8405252698508268  0.8061105202838862  0.6984936153100914  1.0000
  C   C26       1.0  0.3405252698530357  0.3061105199588561  0.6984936153892425  1.0000
  C   C27       1.0  0.15947473013977304  0.8061105202838862  0.80150638444673  1.0000
  C   C28       1.0  0.6594747294209695  0.3061105199588561  0.8015063843626434  1.0000
  C   C29       1.0  0.15947472994378561  0.19388947973562962  0.30150638476549996  1.0000
  C   C30       1.0  0.6594747299415765  0.6938894800606598  0.3015063846863488  1.0000
  C   C31       1.0  0.8405252703714339  0.19388947973562962  0.19849361563379678  1.0000
  C   C32       1.0  0.34052527037364283  0.6938894800606598  0.1984936157129479  1.0000
  C   C33       1.0  0.798859986149429  0.8422714775227577  0.5932168762397878  1.0000
  C   C34       1.0  0.29885998615163795  0.342271477828272  0.5932168763189389  1.0000
  C   C35       1.0  0.20114001384117083  0.8422714775227577  0.9067831235170337  1.0000
  C   C36       1.0  0.7011400139626118  0.342271477828272  0.9067831243142513  1.0000
  C   C37       1.0  0.20114001436177786  0.1577285224967582  0.406783123840739  1.0000
  C   C38       1.0  0.7011400143595689  0.6577285221912438  0.4067831237615878  1.0000
  C   C39       1.0  0.7988599858297915  0.1577285224967582  0.09321687568218871  1.0000
  C   C40       1.0  0.2988599858320006  0.6577285221912438  0.09321687576133988  1.0000
  C   C41       1.0  0.6526120538692868  0.9234538908200687  0.2821503320398929  1.0000
  C   C42       1.0  0.15261205387149585  0.4234538904950385  0.28215033211904406  1.0000
  C   C43       1.0  0.34738794644593257  0.9234538908200687  0.2178496683594038  1.0000
  C   C44       1.0  0.8473879464437236  0.4234538904950385  0.21784966828025265  1.0000
  C   C45       1.0  0.3473879466419201  0.07654610919944717  0.7178496680406338  1.0000
  C   C46       1.0  0.8473879466397111  0.5765461095244774  0.7178496679614828  1.0000
  C   C47       1.0  0.6526120533486798  0.07654610919944717  0.7821503317161874  1.0000
  C   C48       1.0  0.1526120533508888  0.5765461095244774  0.7821503317953387  1.0000
  C   C49       1.0  0.7555707226777802  0.9312909673803944  0.2941766922608758  1.0000
  C   C50       1.0  0.2555707226799893  0.4312909676859088  0.29417669234002697  1.0000
  C   C51       1.0  0.24442927763743913  0.9312909673803944  0.20582330813842092  1.0000
  C   C52       1.0  0.7444292776352301  0.4312909676859088  0.20582330805926977  1.0000
  C   C53       1.0  0.24442927711683204  0.06870903263912136  0.7058233078147154  1.0000
  C   C54       1.0  0.744429277114623  0.568709032333607  0.7058233077355642  1.0000
  C   C55       1.0  0.7555707228737677  0.06870903263912136  0.7941766919421058  1.0000
  C   C56       1.0  0.25557072287597676  0.568709032333607  0.794176692021257  1.0000
  C   C57       1.0  0.8004272593322145  0.9309168760537166  0.19734802492637107  1.0000
  C   C58       1.0  0.30042725933442355  0.43091687635923104  0.19734802500552223  1.0000
  C   C59       1.0  0.1995727409830049  0.9309168760537166  0.30265197547292566  1.0000
  C   C60       1.0  0.6995727409807959  0.43091687635923104  0.3026519753937745  1.0000
  C   C61       1.0  0.19957274046239787  0.0690831233352546  0.8026519751492203  1.0000
  C   C62       1.0  0.6995727404601888  0.5690831236602848  0.802651975070069  1.0000
  C   C63       1.0  0.8004272595282019  0.0690831233352546  0.6973480246076011  1.0000
  C   C64       1.0  0.30042725953041094  0.5690831236602848  0.6973480246867523  1.0000
  C   C65       1.0  0.7447370395808294  0.9253807956878382  0.08360089440060094  1.0000
  C   C66       1.0  0.2447370395830383  0.42538079536280804  0.08360089447975211  1.0000
  C   C67       1.0  0.25526296061074016  0.9253807956878382  0.4163991051223268  1.0000
  C   C68       1.0  0.7552629606085312  0.42538079536280804  0.4163991050431756  1.0000
  C   C69       1.0  0.25526296021378303  0.07461920433167767  0.9163991056749903  1.0000
  C   C70       1.0  0.755262960211574  0.5746192046567078  0.9163991055958391  1.0000
  C   C71       1.0  0.7447370399004666  0.07461920433167767  0.5836008949582  1.0000
  C   C72       1.0  0.24473703990267573  0.5746192046567078  0.5836008950373511  1.0000
  C   C73       1.0  0.6453028009405132  0.9219418136057551  0.07257104776011912  1.0000
  C   C74       1.0  0.14530280081907218  0.42194181391126956  0.0725710469629013  1.0000
  C   C75       1.0  0.3546971993747063  0.9219418136057551  0.42742895263917763  1.0000
  C   C76       1.0  0.8546971993724972  0.42194181391126956  0.4274289525600265  1.0000
  C   C77       1.0  0.35469719957069373  0.07805818641376062  0.9274289523204078  1.0000
  C   C78       1.0  0.8546971995684848  0.5780581861082463  0.9274289522412564  1.0000
  C   C79       1.0  0.6453028004199062  0.07805818641376062  0.5725710474364136  1.0000
  C   C80       1.0  0.1453028004221151  0.5780581861082463  0.5725710475155649  1.0000
  N   N1        1.0  0.7049719887842221  0.8677035191200975  0.5759658019153832  1.0000
  N   N2        1.0  0.20497198878643105  0.36770351942561175  0.5759658019945343  1.0000
  N   N3        1.0  0.2950280112063777  0.8677035191200975  0.9240341978414381  1.0000
  N   N4        1.0  0.7950280112041688  0.36770351942561175  0.9240341977622871  1.0000
  N   N5        1.0  0.29502801101039033  0.13229648089941842  0.42403419816020815  1.0000
  N   N6        1.0  0.7950280110081813  0.6322964805939041  0.424034198081057  1.0000
  N   N7        1.0  0.7049719885882345  0.13229648089941842  0.07596580223415302  1.0000
  N   N8        1.0  0.20497198859044358  0.6322964805939041  0.07596580231330419  1.0000
  N   N9        1.0  0.6019421446521391  0.9203359504650839  0.16881086373693618  1.0000
  N   N10       1.0  0.10194214465434814  0.4203359507705982  0.16881086381608734  1.0000
  N   N11       1.0  0.39805785566308033  0.9203359504650839  0.33118913666236055  1.0000
  N   N12       1.0  0.8980578556608713  0.4203359507705982  0.3311891365832094  1.0000
  N   N13       1.0  0.3980578551424732  0.0796640489238875  0.8311891363386551  1.0000
  N   N14       1.0  0.8980578551402641  0.5796640492489176  0.8311891362595041  1.0000
  N   N15       1.0  0.6019421448481266  0.0796640489238875  0.6688108634181662  1.0000
  N   N16       1.0  0.1019421448503356  0.5796640492489176  0.6688108634973174  1.0000
  O   O1        1.0  0.557200280883818  0.8873122522032828  0.6316878507472364  1.0000
  O   O2        1.0  0.05720028088602698  0.3873122518782526  0.6316878508263876  1.0000
  O   O3        1.0  0.4427997192304318  0.8873122522032828  0.868312149885954  1.0000
  O   O4        1.0  0.9427997192282227  0.3873122518782526  0.8683121498068027  1.0000
  O   O5        1.0  0.4427997189107944  0.11268774781623307  0.3683121493283548  1.0000
  O   O6        1.0  0.9427997189085854  0.6126877481412633  0.3683121492492037  1.0000
  O   O7        1.0  0.5572002805641806  0.11268774781623307  0.1316878501896374  1.0000
  O   O8        1.0  0.05720028056638955  0.6126877481412633  0.13168785026878857  1.0000
  O   O9        1.0  0.6056100205744791  0.9192468443863152  0.36764434791269707  1.0000
  O   O10       1.0  0.10561002057668821  0.4192468446918295  0.36764434799184825  1.0000
  O   O11       1.0  0.39438997961709027  0.9192468443863152  0.1323556516102307  1.0000
  O   O12       1.0  0.8943899797385312  0.4192468446918295  0.1323556524074485  1.0000
  O   O13       1.0  0.39438997922013314  0.08075315563320068  0.6323556521628942  1.0000
  O   O14       1.0  0.8943899792179241  0.5807531553276863  0.632355652083743  1.0000
  O   O15       1.0  0.6056100207704667  0.08075315563320068  0.8676443475939272  1.0000
  O   O16       1.0  0.10561002077267567  0.5807531553276863  0.8676443476730783  1.0000
  I   I1        1.0  0.5000000001937784  0.49999999969448566  0.4999999996020789  1.0000
  I   I2        1.0  1.9598746476845241e-10  0.0  0.4999999996812301  1.0000
  I   I3        1.0  0.499999999997791  0.49999999969448566  0.9999999999208489  1.0000
  I   I4        1.0  0.0  0.0  0.0  1.0000
  I   I5        1.0  0.4753372247810664  0.70444341140913  0.5450574686945826  1.0000
  I   I6        1.0  0.9753372247788573  0.20444341108409989  0.5450574686154314  1.0000
  I   I7        1.0  0.5246627753331834  0.70444341140913  0.9549425319386078  1.0000
  I   I8        1.0  0.024662775335392424  0.20444341108409989  0.9549425320177589  1.0000
  I   I9        1.0  0.524662775013546  0.2955565886103858  0.4549425313810088  1.0000
  I   I10       1.0  0.02466277501575502  0.7955565889354159  0.45494253146016  1.0000
  I   I11       1.0  0.4753372244614289  0.2955565886103858  0.045057468136983456  1.0000
  I   I12       1.0  0.97533722445922  0.7955565889354159  0.0450574680578323  1.0000
