data_image0
_chemical_formula_structural       H36C29N2O12S3
_chemical_formula_sum              "H36 C29 N2 O12 S3"
_cell_length_a       6.841191742300997
_cell_length_b       7.895789725151394
_cell_length_c       15.2084080688582
_cell_angle_alpha    82.9258203845426
_cell_angle_beta     77.34596936272588
_cell_angle_gamma    81.7738715555827

_space_group_name_H-M_alt    "P 1"
_space_group_IT_number       1

loop_
  _space_group_symop_operation_xyz
  'x, y, z'

loop_
  _atom_site_type_symbol
  _atom_site_label
  _atom_site_symmetry_multiplicity
  _atom_site_fract_x
  _atom_site_fract_y
  _atom_site_fract_z
  _atom_site_occupancy
  H   H1        1.0  0.029341514253297524  0.9130204633036073  0.3873690540841328  1.0000
  H   H2        1.0  0.4205021716228477  0.435892841864711  0.9387600934337281  1.0000
  H   H3        1.0  0.3226824709711444  0.06987644134401372  0.9690140087426227  1.0000
  H   H4        1.0  0.053734978563992564  0.4315509422943977  0.3664817439792954  1.0000
  H   H5        1.0  0.9713222393071642  0.23868287842110072  0.2158125414373735  1.0000
  H   H6        1.0  0.9050437001855169  0.40089742592131206  0.0839430141390443  1.0000
  H   H7        1.0  0.8919992688677287  0.6739231352180514  0.9829144027887473  1.0000
  H   H8        1.0  0.052577316399666826  0.9351999682439968  0.1852334644180949  1.0000
  H   H9        1.0  0.057009249729374364  0.6674279132004041  0.28658555084689896  1.0000
  H   H10       1.0  0.22242015191753967  0.8299325248311885  0.8526855982879626  1.0000
  H   H11       1.0  0.5957084301372173  0.8014132279779753  0.7902378697145774  1.0000
  H   H12       1.0  0.6261450052633996  0.937059402378047  0.8684506273199355  1.0000
  H   H13       1.0  0.409359973011339  0.17672700909093805  0.7990455731443044  1.0000
  H   H14       1.0  0.42014893408359416  0.9254723412436001  0.6583447638413409  1.0000
  H   H15       1.0  0.33460192522990845  0.14819839331916818  0.6473910929398377  1.0000
  H   H16       1.0  0.20051549487382897  0.009124930470507992  0.7329630452023419  1.0000
  H   H17       1.0  0.7912115819888462  0.12793682465075812  0.7514687109567638  1.0000
  H   H18       1.0  0.669722316183707  0.23864589020873433  0.6642621711449435  1.0000
  H   H19       1.0  0.7638550491681946  0.0186699474993416  0.660450405097097  1.0000
  H   H20       1.0  0.47669761168217895  0.4949478163412687  0.0714900471137063  1.0000
  H   H21       1.0  0.10879423661871492  0.9654248706628673  0.5180378388877379  1.0000
  H   H22       1.0  0.19838360799735563  0.32992051446368115  0.4873091065699254  1.0000
  H   H23       1.0  0.4688287053295392  0.9729323150813357  0.08870853897842394  1.0000
  H   H24       1.0  0.533394305014959  0.17039489538478195  0.24128206383130538  1.0000
  H   H25       1.0  0.5932197473817907  0.01434148541975602  0.37464433467515185  1.0000
  H   H26       1.0  0.6082849773597778  0.744218513826761  0.4769418478944889  1.0000
  H   H27       1.0  0.46577696179130224  0.4713339610415182  0.2743652276495442  1.0000
  H   H28       1.0  0.45951976365490854  0.7370467569634169  0.1714984404405184  1.0000
  H   H29       1.0  0.2706225704237816  0.5671004111374459  0.6118766072912047  1.0000
  H   H30       1.0  0.8809608237943893  0.45814268919157364  0.5804520644345496  1.0000
  H   H31       1.0  0.030200798592760564  0.3466115484708839  0.6551082024442091  1.0000
  H   H32       1.0  0.724671439961912  0.537107023318937  0.7312322612260049  1.0000
  H   H33       1.0  0.8296370425574698  0.719800462965887  0.6706798641421259  1.0000
  H   H34       1.0  0.8225558395787664  0.3813270694496544  0.8768296686764397  1.0000
  H   H35       1.0  0.0641026723600547  0.386460705049911  0.9022807660513427  1.0000
  H   H36       1.0  0.04658973065048776  0.2904210788885547  0.8050502711225773  1.0000
  C   C1        1.0  0.04413855423032064  0.1579853153544522  0.3841358437744204  1.0000
  C   C2        1.0  0.03261079622552012  0.3249302433557305  0.33161774183963355  1.0000
  C   C3        1.0  0.9955085884174232  0.34954157504731276  0.24692020873349999  1.0000
  C   C4        1.0  0.9851390147917806  0.5132509595787085  0.19156477974594815  1.0000
  C   C5        1.0  0.9361966106232791  0.5182088295098568  0.10598724370589856  1.0000
  C   C6        1.0  0.9299823417788874  0.6701086130405471  0.049122805219384114  1.0000
  C   C7        1.0  0.9763639676318379  0.8183043326885266  0.077552465238109  1.0000
  C   C8        1.0  0.02029232467369543  0.8180299774869683  0.16327884090830827  1.0000
  C   C9        1.0  0.02303809169737131  0.6666437202387266  0.22002939425722634  1.0000
  C   C10       1.0  0.3911601524340916  0.6850470658414666  0.9442790134712608  1.0000
  C   C11       1.0  0.3307483553205879  0.8553030456326806  0.8918419197310896  1.0000
  C   C12       1.0  0.5214666842908472  0.9115369773124515  0.8275298093433281  1.0000
  C   C13       1.0  0.4852225528977796  0.06800840310728375  0.760255712231198  1.0000
  C   C14       1.0  0.3521347957384652  0.036108238194643386  0.6967712331860363  1.0000
  C   C15       1.0  0.6891866489365254  0.11682819057575307  0.7063521071918502  1.0000
  C   C16       1.0  0.4729652300421807  0.24754932303439714  0.07207819250348368  1.0000
  C   C17       1.0  0.48426980686921456  0.08044323651608748  0.12428531635801314  1.0000
  C   C18       1.0  0.5140790204824193  0.05805064915650158  0.2100748687778969  1.0000
  C   C19       1.0  0.5235351542478984  0.8958123052103989  0.2664052691518597  1.0000
  C   C20       1.0  0.5669075282256268  0.8951686757789783  0.35268214634700573  1.0000
  C   C21       1.0  0.5741563622522118  0.7446299784775844  0.41034634077254767  1.0000
  C   C22       1.0  0.5342825537923019  0.5935834737218175  0.38225230609621685  1.0000
  C   C23       1.0  0.4939810149770572  0.5902344292497262  0.2961281962630102  1.0000
  C   C24       1.0  0.4902550144154392  0.740382682298531  0.23843438725009447  1.0000
  C   C25       1.0  0.11808511260561178  0.7177662589775297  0.5150785090904234  1.0000
  C   C26       1.0  0.17255660496987016  0.5446823704252878  0.5670635555911417  1.0000
  C   C27       1.0  0.9819641426764553  0.4752295192294746  0.6248743541193165  1.0000
  C   C28       1.0  0.867804167220672  0.5872230897044183  0.6987216302761379  1.0000
  C   C29       1.0  0.9815537596468502  0.39538262691083564  0.8474941960118043  1.0000
  N   N1        1.0  0.2367214761670941  0.9898967634245129  0.9495539919364917  1.0000
  N   N2        1.0  0.27677441220987536  0.4152135067400065  0.5077296659434201  1.0000
  O   O1        1.0  0.013839459235069913  0.024817451981189873  0.3460359956106011  1.0000
  O   O2        1.0  0.08343237814930046  0.14381776274489158  0.46210096207770907  1.0000
  O   O3        1.0  0.3904498732547137  0.5511289674845151  0.9004620336964803  1.0000
  O   O4        1.0  0.44024324414307986  0.6757434355322512  0.019024525890877067  1.0000
  O   O5        1.0  0.8798585673759767  0.9935857208502853  0.9342198519561457  1.0000
  O   O6        1.0  0.9678349910117181  0.1526698926675895  0.05089598828308635  1.0000
  O   O7        1.0  0.4953074057380131  0.38126851301474013  0.11179763107780709  1.0000
  O   O8        1.0  0.4412304040157834  0.2604888619880154  0.9927806569595101  1.0000
  O   O9        1.0  0.13849221754879318  0.8502203310506796  0.5559348315622411  1.0000
  O   O10       1.0  0.05856285191043632  0.7300069218960962  0.4426544974067717  1.0000
  O   O11       1.0  0.6235515174878556  0.4328078455459594  0.5292756216349179  1.0000
  O   O12       1.0  0.5631844647866573  0.2575748155124676  0.41265419904916445  1.0000
  S   S1        1.0  0.0002575135952623606  0.00434609622369805  0.9999457157665086  1.0000
  S   S2        1.0  0.5145400278946503  0.40936918788599586  0.4611714876197633  1.0000
  S   S3        1.0  0.007264436887232709  0.6037638959640876  0.785404075518831  1.0000
