data_image0
_chemical_formula_structural       H18C24N4O8I2
_chemical_formula_sum              "H18 C24 N4 O8 I2"
_cell_length_a       6.660998495549474
_cell_length_b       7.402725261749411
_cell_length_c       12.888488932407087
_cell_angle_alpha    93.03442961980954
_cell_angle_beta     103.00625410210132
_cell_angle_gamma    91.8488947068533

_space_group_name_H-M_alt    "P 1"
_space_group_IT_number       1

loop_
  _space_group_symop_operation_xyz
  'x, y, z'

loop_
  _atom_site_type_symbol
  _atom_site_label
  _atom_site_symmetry_multiplicity
  _atom_site_fract_x
  _atom_site_fract_y
  _atom_site_fract_z
  _atom_site_occupancy
  H   H1        1.0  0.404147126741763  0.8961440763486141  0.5486148141096628  1.0000
  H   H2        1.0  0.5958528743788034  0.10385592373381065  0.45138518617764395  1.0000
  H   H3        1.0  0.6643345230484233  0.4321876529906565  0.10137096360948343  1.0000
  H   H4        1.0  0.33566547622663323  0.5678123470035868  0.8986290358756189  1.0000
  H   H5        1.0  0.07093637336548925  0.9214527988274048  0.7830080658087826  1.0000
  H   H6        1.0  0.9290636277550772  0.0785472012550201  0.21699193447852413  1.0000
  H   H7        1.0  0.28034208113726217  0.45841818684275387  0.33022210840966826  1.0000
  H   H8        1.0  0.7196579199833042  0.541581813239671  0.6697778918776386  1.0000
  H   H9        1.0  0.9546808694441709  0.5899967976726543  0.23756067058158353  1.0000
  H   H10       1.0  0.04531913017324921  0.4100032024101831  0.7624393297013425  1.0000
  H   H11       1.0  0.5702165423087003  0.6182381761399557  0.463547631665466  1.0000
  H   H12       1.0  0.4297834573087198  0.38176182394288183  0.53645236861746  1.0000
  H   H13       1.0  0.7191218481553037  0.047446625813144835  0.6719205896099477  1.0000
  H   H14       1.0  0.2808781514621164  0.9525533742696927  0.32807941067297836  1.0000
  H   H15       1.0  0.36541124316837514  0.07138020784340604  0.9168497443431274  1.0000
  H   H16       1.0  0.634588756449045  0.9286197922394315  0.08315025593979872  1.0000
  H   H17       1.0  0.05148034047106969  0.8157580390455624  0.5853544848661338  1.0000
  H   H18       1.0  0.9485196606494968  0.18424196103686263  0.414645515421173  1.0000
  C   C1        1.0  0.40591566784048505  0.938006431564268  0.6312879080973923  1.0000
  C   C2        1.0  0.5940843332800815  0.06199356851815698  0.3687120921899145  1.0000
  C   C3        1.0  0.7805990871308708  0.6107235565967694  0.3589280789732505  1.0000
  C   C4        1.0  0.2194009136473321  0.3892764433970614  0.6410719205162325  1.0000
  C   C5        1.0  0.6469658049930656  0.4718350620146476  0.18119463630640312  1.0000
  C   C6        1.0  0.3530341946243544  0.52816493806819  0.8188053639765229  1.0000
  C   C7        1.0  0.9568801671390165  0.7065346562847095  0.4378625309883074  1.0000
  C   C8        1.0  0.04311983247840367  0.29346534379812805  0.5621374692946187  1.0000
  C   C9        1.0  0.21723323411460838  0.9520911171774793  0.7617665977631078  1.0000
  C   C10       1.0  0.7827667670059582  0.04790888290494571  0.238233402524199  1.0000
  C   C11       1.0  0.42855218704119585  0.4858472553006925  0.31076045528206264  1.0000
  C   C12       1.0  0.5714478122338605  0.5141527446935508  0.6892395442030397  1.0000
  C   C13       1.0  0.807110579439549  0.5592530540469525  0.2568812058472103  1.0000
  C   C14       1.0  0.1928894216810174  0.4407469460354723  0.7431187944400965  1.0000
  C   C15       1.0  0.590664449882856  0.5743444145484108  0.38494388795764917  1.0000
  C   C16       1.0  0.4093355497345642  0.42565558553442656  0.615056112325277  1.0000
  C   C17       1.0  0.5673886794185501  0.06724835921959746  0.8051405145139318  1.0000
  C   C18       1.0  0.43261132170201627  0.9327516408628275  0.19485948577337492  1.0000
  C   C19       1.0  0.5802870124963555  0.01937167534060721  0.7005308732057646  1.0000
  C   C20       1.0  0.4197129871210646  0.9806283247422303  0.29946912707716156  1.0000
  C   C21       1.0  0.4596421160570047  0.4362956202933298  0.2095561815271923  1.0000
  C   C22       1.0  0.5403578831698582  0.5637043783496677  0.7904438179607939  1.0000
  C   C23       1.0  0.38287257783449297  0.0342632648459742  0.8367043708019541  1.0000
  C   C24       1.0  0.6171274217829271  0.9657367352368633  0.16329562948097193  1.0000
  N   N1        1.0  0.2285682003501589  0.9050406298699689  0.6613524632671651  1.0000
  N   N2        1.0  0.7714317989248975  0.09495937012427444  0.3386475362179372  1.0000
  N   N3        1.0  0.28867404267512986  0.3480896817833713  0.1296928460278456  1.0000
  N   N4        1.0  0.7113259584454366  0.6519103182990537  0.8703071542594611  1.0000
  O   O1        1.0  0.9163609551305005  0.7476521872769817  0.5318033574126169  1.0000
  O   O2        1.0  0.08363904599006598  0.2523478128054432  0.46819664287469  1.0000
  O   O3        1.0  0.12388767209114061  0.7417440913011187  0.41458245236078756  1.0000
  O   O4        1.0  0.8761123271839157  0.25825590869312454  0.5854175471243148  1.0000
  O   O5        1.0  0.12339803655945927  0.31379519498450703  0.15590427014857902  1.0000
  O   O6        1.0  0.8766019645611072  0.686204805097918  0.8440957301387277  1.0000
  O   O7        1.0  0.3144579975311554  0.3129449497698853  0.038175845433068435  1.0000
  O   O8        1.0  0.6855420017439011  0.687055050224358  0.9618241540520339  1.0000
  I   I1        1.0  0.8257992596501107  0.18048737597561  0.9166729409843571  1.0000
  I   I2        1.0  0.17420074112809222  0.8195126240182209  0.08332705850512591  1.0000
