data_image0
_chemical_formula_structural       H32C48N12O24I4
_chemical_formula_sum              "H32 C48 N12 O24 I4"
_cell_length_a       9.042335535748657
_cell_length_b       11.2678831518312
_cell_length_c       13.744699208108191
_cell_angle_alpha    90.0
_cell_angle_beta     92.22277788840569
_cell_angle_gamma    90.0

_space_group_name_H-M_alt    "P 1"
_space_group_IT_number       1

loop_
  _space_group_symop_operation_xyz
  'x, y, z'

loop_
  _atom_site_type_symbol
  _atom_site_label
  _atom_site_symmetry_multiplicity
  _atom_site_fract_x
  _atom_site_fract_y
  _atom_site_fract_z
  _atom_site_occupancy
  H   H1        1.0  0.9118616346546845  0.38320801625443457  0.02082494918390697  1.0000
  H   H2        1.0  0.08813836595527315  0.8832080166169162  0.479175050902016  1.0000
  H   H3        1.0  0.0881383653228887  0.6167919835830504  0.9791750508843651  1.0000
  H   H4        1.0  0.9118616340223  0.11679198322056886  0.5208249491662561  1.0000
  H   H5        1.0  0.48105990831120066  0.14071322080956494  0.5565694366901229  1.0000
  H   H6        1.0  0.5189400921399306  0.6407132202845685  0.9434305633610731  1.0000
  H   H7        1.0  0.5189400916663726  0.8592867790279201  0.4434305633781492  1.0000
  H   H8        1.0  0.4810599078376426  0.3592867795529167  0.05656943670719907  1.0000
  H   H9        1.0  0.9283872605672092  0.08350165486470205  0.7607478776056416  1.0000
  H   H10       1.0  0.07161273988392208  0.5835016552271837  0.7392521224455543  1.0000
  H   H11       1.0  0.07161273941036402  0.916498344972783  0.2392521224626305  1.0000
  H   H12       1.0  0.9283872600936511  0.41649834461030144  0.2607478776227178  1.0000
  H   H13       1.0  0.31292461477568606  0.2714180959094326  0.27808779725624344  1.0000
  H   H14       1.0  0.6870753847283291  0.7714180962719142  0.2219122028291049  1.0000
  H   H15       1.0  0.6870753852018872  0.7285819039280524  0.7219122028120287  1.0000
  H   H16       1.0  0.3129246152492441  0.2285819035655709  0.7780877972391672  1.0000
  H   H17       1.0  0.6466405715454726  0.46893234681274554  0.4425431061738712  1.0000
  H   H18       1.0  0.35335942795854247  0.9689323462877489  0.057456893911477035  1.0000
  H   H19       1.0  0.35335942843210055  0.5310676539122178  0.5574568938944009  1.0000
  H   H20       1.0  0.6466405720190307  0.031067653549736087  0.942543106156795  1.0000
  H   H21       1.0  0.08742721921559353  0.051429175488549764  0.9115572856519161  1.0000
  H   H22       1.0  0.9125727801295953  0.5514291758510314  0.5884427143987052  1.0000
  H   H23       1.0  0.9125727807619798  0.9485708243489354  0.08844271441635608  1.0000
  H   H24       1.0  0.08742721984797798  0.4485708248739318  0.4115572856695669  1.0000
  H   H25       1.0  0.7678806315658018  0.4030660576438358  0.8628401336512393  1.0000
  H   H26       1.0  0.23211936777938696  0.9030660580063175  0.6371598663993819  1.0000
  H   H27       1.0  0.23211936841177144  0.5969339421936494  0.13715986641703282  1.0000
  H   H28       1.0  0.7678806321981863  0.09693394271864585  0.3628401336688902  1.0000
  H   H29       1.0  0.7526011564225384  0.24737733631423067  0.722585877317991  1.0000
  H   H30       1.0  0.24739884292265032  0.7473773357892342  0.7774141227326303  1.0000
  H   H31       1.0  0.24739884355503475  0.7526226635232545  0.2774141227502812  1.0000
  H   H32       1.0  0.752601157054923  0.25262266404825096  0.22258587733564184  1.0000
  C   C1        1.0  0.38839443894906384  0.19684901681284567  0.4164940082900853  1.0000
  C   C2        1.0  0.6116055605128993  0.6968490171753273  0.08350599106716218  1.0000
  C   C3        1.0  0.6116055609864574  0.8031509830246394  0.583505991050086  1.0000
  C   C4        1.0  0.38839443946467395  0.30315098266215784  0.9164940090011098  1.0000
  C   C5        1.0  0.6740227851310733  0.3234462410455246  0.597317783042845  1.0000
  C   C6        1.0  0.3259772142141155  0.8234462414080063  0.9026822170077763  1.0000
  C   C7        1.0  0.3259772148465  0.6765537587919604  0.4026822170254272  1.0000
  C   C8        1.0  0.6740227857634576  0.17655375842947882  0.0973177830604958  1.0000
  C   C9        1.0  0.5741943694599962  0.30633580802078497  0.5083507093144913  1.0000
  C   C10       1.0  0.425805630991135  0.8063358083832666  0.9916492907367046  1.0000
  C   C11       1.0  0.42580563051757686  0.6936641918167001  0.4916492907537807  1.0000
  C   C12       1.0  0.5741943689864383  0.19366419234169663  0.008350709331567495  1.0000
  C   C13       1.0  0.9216620580993174  0.31578590335503554  0.9648064106098297  1.0000
  C   C14       1.0  0.0783379423518139  0.8157859028300389  0.5351935894413663  1.0000
  C   C15       1.0  0.07833794187825584  0.6842140964824496  0.03519358945844245  1.0000
  C   C16       1.0  0.9216620576257594  0.1842140970074461  0.46480641062690586  1.0000
  C   C17       1.0  0.4813547302828266  0.20731765838558242  0.4993372738192138  1.0000
  C   C18       1.0  0.5186452703271309  0.7073176587480641  0.0006627262667092589  1.0000
  C   C19       1.0  0.5186452696947467  0.7926823414519026  0.5006627262490584  1.0000
  C   C20       1.0  0.4813547296504422  0.2926823410894211  0.9993372738015628  1.0000
  C   C21       1.0  0.480259029502967  0.3771500114739265  0.35304539904963295  1.0000
  C   C22       1.0  0.5197409700010481  0.87715001094893  0.14695460103571534  1.0000
  C   C23       1.0  0.5197409704746062  0.6228499883635585  0.6469546010186391  1.0000
  C   C24       1.0  0.480259029976525  0.1228499888885551  0.8530453990325567  1.0000
  C   C25       1.0  0.9310404613846868  0.14832619024172125  0.819876693570087  1.0000
  C   C26       1.0  0.06895953796050201  0.6483261906042028  0.6801233064805344  1.0000
  C   C27       1.0  0.06895953859288645  0.8516738095957639  0.18012330649818523  1.0000
  C   C28       1.0  0.931040462017071  0.3516738101207604  0.31987669358773774  1.0000
  C   C29       1.0  0.010708074180439271  0.21532914898977185  0.9779807614782399  1.0000
  C   C30       1.0  0.989291926270692  0.7153291484647754  0.5220192385729561  1.0000
  C   C31       1.0  0.9892919257971341  0.7846708517351914  0.02201923859003219  1.0000
  C   C32       1.0  0.010708073706881203  0.2846708513727098  0.4779807614953161  1.0000
  C   C33       1.0  0.3858571039721295  0.28043110027161355  0.3421877183586663  1.0000
  C   C34       1.0  0.6141428966378282  0.7804311006340952  0.15781228172725673  1.0000
  C   C35       1.0  0.6141428960054437  0.7195688995658714  0.6578122817096058  1.0000
  C   C36       1.0  0.38585710333974504  0.2195688992033899  0.8421877183410155  1.0000
  C   C37       1.0  0.573920702331503  0.3922024093125069  0.4349866691013354  1.0000
  C   C38       1.0  0.42607929717251214  0.8922024096749885  0.06501333098401292  1.0000
  C   C39       1.0  0.42607929764607017  0.6077975905249783  0.5650133309669367  1.0000
  C   C40       1.0  0.5739207028050611  0.1077975901624966  0.9349866690842591  1.0000
  C   C41       1.0  0.01766541277940841  0.1300255017076475  0.9043681413410417  1.0000
  C   C42       1.0  0.9823345865657803  0.6300255020701291  0.5956318587095796  1.0000
  C   C43       1.0  0.9823345871981649  0.8699744981298376  0.09563185872723054  1.0000
  C   C44       1.0  0.017665413411792844  0.36997449776735597  0.4043681413586925  1.0000
  C   C45       1.0  0.8403607308237018  0.32706769145019704  0.8771239139955077  1.0000
  C   C46       1.0  0.15963926962742953  0.8270676918126787  0.6228760860556882  1.0000
  C   C47       1.0  0.15963926915387144  0.672932308387288  0.1228760860727643  1.0000
  C   C48       1.0  0.8403607303501437  0.17293230891228462  0.377123914012584  1.0000
  N   N1        1.0  0.8445732072238821  0.24448976110941392  0.8069150855105242  1.0000
  N   N2        1.0  0.15542679322724917  0.7444897605844173  0.6930849145406719  1.0000
  N   N3        1.0  0.15542679275369115  0.7555102387280711  0.19308491455774807  1.0000
  N   N4        1.0  0.8445732067503241  0.2555102392530677  0.3069150855276003  1.0000
  N   N5        1.0  0.4791759727360249  0.46620415913225793  0.27523632264509096  1.0000
  N   N6        1.0  0.5208240278318806  0.9662041586072613  0.2247636767127313  1.0000
  N   N7        1.0  0.5208240271994962  0.5337958407052272  0.7247636766950803  1.0000
  N   N8        1.0  0.479175973209583  0.033795841230223715  0.7752363226280147  1.0000
  N   N9        1.0  0.28599738138237546  0.09573280938972943  0.408069302864991  1.0000
  N   N10       1.0  0.7140026181216397  0.595732809752211  0.09193069722035728  1.0000
  N   N11       1.0  0.7140026185951978  0.9042671904477557  0.5919306972032811  1.0000
  N   N12       1.0  0.28599738185593354  0.404267190085274  0.9080693028479149  1.0000
  O   O1        1.0  0.746036082599063  0.41622037580659665  0.6092640387904593  1.0000
  O   O2        1.0  0.25396391785206834  0.9162203761690781  0.8907359612607367  1.0000
  O   O3        1.0  0.25396391848445277  0.5837796240308885  0.3907359612783876  1.0000
  O   O4        1.0  0.746036082125505  0.083779624555885  0.10926403880753544  1.0000
  O   O5        1.0  0.19424452668478823  0.09398965677309906  0.33845790482795624  1.0000
  O   O6        1.0  0.8057554738831173  0.5939896571355807  0.16154209452986593  1.0000
  O   O7        1.0  0.8057554732507329  0.9060103430643861  0.661542094512215  1.0000
  O   O8        1.0  0.1942445260524038  0.40601034270190445  0.8384579048103052  1.0000
  O   O9        1.0  0.2955764758566956  0.018667053710600196  0.47229454006204025  1.0000
  O   O10       1.0  0.7044235247532621  0.5186670531856037  0.027705460023882703  1.0000
  O   O11       1.0  0.7044235241208777  0.981332947014363  0.5277054600062319  1.0000
  O   O12       1.0  0.29557647522431113  0.4813329466518814  0.9722945400443895  1.0000
  O   O13       1.0  0.3958702851353584  0.44983772210810136  0.2026592930578226  1.0000
  O   O14       1.0  0.6041297143686568  0.9498377215831049  0.29734070702752574  1.0000
  O   O15       1.0  0.6041297148422149  0.5501622777293838  0.7973407070104495  1.0000
  O   O16       1.0  0.39587028560891646  0.05016227825438027  0.7026592930407465  1.0000
  O   O17       1.0  0.5619635566814606  0.5532339860115535  0.2867736980498164  1.0000
  O   O18       1.0  0.4380364427805024  0.05323398653654995  0.21322630130743106  1.0000
  O   O19       1.0  0.4380364432540605  0.4467660138259317  0.7132263012903549  1.0000
  O   O20       1.0  0.5619635571550188  0.9467660141884132  0.7867736980327403  1.0000
  O   O21       1.0  0.6748531139542362  0.2333066579211703  0.657617393625363  1.0000
  O   O22       1.0  0.32514688539095254  0.7333066573961737  0.8423826064252583  1.0000
  O   O23       1.0  0.325146886023337  0.7666933419163147  0.3423826064429092  1.0000
  O   O24       1.0  0.6748531145866207  0.26669334244131127  0.15761739364301383  1.0000
  I   I1        1.0  0.1312511727507875  0.18895638260625586  0.10917122640074743  1.0000
  I   I2        1.0  0.8687488278591702  0.6889563829687375  0.39082877368517555  1.0000
  I   I3        1.0  0.8687488272267858  0.8110436172312292  0.8908287736675247  1.0000
  I   I4        1.0  0.13125117322434557  0.31104361686874765  0.6091712263836713  1.0000
