data_image0
_chemical_formula_structural       H24C48N72O68
_chemical_formula_sum              "H24 C48 N72 O68"
_cell_length_a       12.276568837805033
_cell_length_b       11.565683737773458
_cell_length_c       16.16980370822155
_cell_angle_alpha    90.0
_cell_angle_beta     92.3192684668779
_cell_angle_gamma    90.0

_space_group_name_H-M_alt    "P 1"
_space_group_IT_number       1

loop_
  _space_group_symop_operation_xyz
  'x, y, z'

loop_
  _atom_site_type_symbol
  _atom_site_label
  _atom_site_symmetry_multiplicity
  _atom_site_fract_x
  _atom_site_fract_y
  _atom_site_fract_z
  _atom_site_occupancy
  H   H1        1.0  0.6403340503186578  0.6787429604668793  0.2822453118785846  1.0000
  H   H2        1.0  0.3596659494403757  0.17874296037062298  0.21775468815223264  1.0000
  H   H3        1.0  0.35966594918240663  0.32125703972563335  0.7177546880531372  1.0000
  H   H4        1.0  0.640334050875916  0.8212570398218898  0.782245311803992  1.0000
  H   H5        1.0  0.6165750791120005  0.8838598877309394  0.2747266902831478  1.0000
  H   H6        1.0  0.383424920647033  0.383859887634683  0.2252733097476695  1.0000
  H   H7        1.0  0.3834249203890639  0.1161401124615734  0.7252733096485741  1.0000
  H   H8        1.0  0.6165750796692587  0.6161401125578297  0.7747266902085552  1.0000
  H   H9        1.0  0.9284497558754731  0.8260420833398318  0.35339004565956  1.0000
  H   H10       1.0  0.07155024388356042  0.32604208324357536  0.1466099543712572  1.0000
  H   H11       1.0  0.07155024444081866  0.173957916852681  0.6466099542966647  1.0000
  H   H12       1.0  0.928449755617504  0.6739579169489374  0.8533900455604646  1.0000
  H   H13       1.0  0.803161816216401  0.6823994014485641  0.061900291058468296  1.0000
  H   H14       1.0  0.19683818435785974  0.18239940135230773  0.43809970899685174  1.0000
  H   H15       1.0  0.19683818409989065  0.31760059874394864  0.9380997088977565  1.0000
  H   H16       1.0  0.803161815958432  0.817600597975578  0.5619002909593729  1.0000
  H   H17       1.0  0.7835095814814489  0.8906017718916946  0.05496619594010765  1.0000
  H   H18       1.0  0.2164904182775846  0.39060177266006507  0.44503380409070964  1.0000
  H   H19       1.0  0.21649041802033314  0.1093982274361913  0.9450338046100727  1.0000
  H   H20       1.0  0.7835095820387071  0.6093982275324477  0.5549661958655151  1.0000
  H   H21       1.0  0.02231553044584084  0.8286977041138711  0.22907810430389436  1.0000
  H   H22       1.0  0.9776844693131927  0.32869770401761467  0.2709218957269229  1.0000
  H   H23       1.0  0.9776844698711686  0.17130229607864167  0.770921896270789  1.0000
  H   H24       1.0  0.02231553018787174  0.6713022953102712  0.729078104204799  1.0000
  C   C1        1.0  0.7085065295514055  0.7208644745118229  0.2529416489645434  1.0000
  C   C2        1.0  0.29149347020762806  0.2208644744155665  0.24705835106627375  1.0000
  C   C3        1.0  0.29149346994965897  0.27913552568068983  0.7470583509671783  1.0000
  C   C4        1.0  0.7085065301086637  0.7791355257769462  0.7529416488899509  1.0000
  C   C5        1.0  0.6927538836856991  0.8566026094629543  0.24820028752578616  1.0000
  C   C6        1.0  0.30724611688856174  0.35660260936669796  0.2517997125295339  1.0000
  C   C7        1.0  0.30724611663059265  0.1433973907295584  0.7517997124304385  1.0000
  C   C8        1.0  0.69275388342773  0.6433973899611879  0.7482002874266909  1.0000
  C   C9        1.0  0.87108416032316  0.8149499833906508  0.3003138433862656  1.0000
  C   C10       1.0  0.12891584025110078  0.3149499832943944  0.19968615666905448  1.0000
  C   C11       1.0  0.1289158399931317  0.18505001680186195  0.699686156569959  1.0000
  C   C12       1.0  0.871084160065191  0.6850500168981183  0.8003138432871703  1.0000
  C   C13       1.0  0.8045307372988927  0.723091925182626  0.1229203303877682  1.0000
  C   C14       1.0  0.1954692624601408  0.22309192508636963  0.377079669643049  1.0000
  C   C15       1.0  0.19546926220217167  0.2769080750098867  0.8770796695439537  1.0000
  C   C16       1.0  0.8045307378561509  0.776908075106143  0.6229203303131756  1.0000
  C   C17       1.0  0.7902501407135343  0.8589094691873701  0.11861436197224055  1.0000
  C   C18       1.0  0.20974985986072653  0.35890946909111376  0.38138563808307957  1.0000
  C   C19       1.0  0.20974985960275744  0.14109053100514263  0.8813856379839841  1.0000
  C   C20       1.0  0.7902501404555652  0.6410905311013989  0.6186143618731452  1.0000
  C   C21       1.0  0.9349115726220923  0.8168910316251515  0.21586133904282806  1.0000
  C   C22       1.0  0.06508842713622343  0.31689103152889525  0.28413866036953067  1.0000
  C   C23       1.0  0.06508842687897197  0.18310896770273433  0.7841386608888937  1.0000
  C   C24       1.0  0.934911572364841  0.6831089677989907  0.7158613395621912  1.0000
  C   C25       1.0  0.424577178975699  0.7569120761454692  0.502363112639923  1.0000
  C   C26       1.0  0.5754228202673963  0.2569120760492129  0.9976368871927036  1.0000
  C   C27       1.0  0.5754228205253654  0.24308792318241662  0.49763688729179884  1.0000
  C   C28       1.0  0.4245771792336681  0.7430879232786729  0.002363112739018366  1.0000
  C   C29       1.0  0.44157274539041985  0.7705718124465774  0.41543232131868385  1.0000
  C   C30       1.0  0.5584272543686136  0.2705718123503211  0.08456767871213336  1.0000
  C   C31       1.0  0.5584272549258719  0.22942818774593532  0.5845676786375409  1.0000
  C   C32       1.0  0.4415727451324507  0.7294281878421917  0.9154323212195885  1.0000
  C   C33       1.0  0.36047046439983244  0.7784473165728502  0.34936820698658244  1.0000
  C   C34       1.0  0.6395295353592011  0.2784473164765937  0.15063179304423477  1.0000
  C   C35       1.0  0.6395295359171769  0.22155268361966263  0.6506317935881007  1.0000
  C   C36       1.0  0.3604704641418633  0.7215526837159189  0.849368206887487  1.0000
  C   C37       1.0  0.2457805260853156  0.7882467562402034  0.35554882365275964  1.0000
  C   C38       1.0  0.7542194736737179  0.28824675700857383  0.14445117637805757  1.0000
  C   C39       1.0  0.7542194734157487  0.21175324308768254  0.6444511762789621  1.0000
  C   C40       1.0  0.24578052664257383  0.7117532431839388  0.8555488235781672  1.0000
  C   C41       1.0  0.1891011785064547  0.7857033622942037  0.4321419248485108  1.0000
  C   C42       1.0  0.8108988220678061  0.28570336219794734  0.06785807520680927  1.0000
  C   C43       1.0  0.8108988218098371  0.214296637898309  0.5678580751077139  1.0000
  C   C44       1.0  0.18910117824920328  0.7142966379945654  0.9321419253678739  1.0000
  C   C45       1.0  0.2321827937117845  0.7661641188630579  0.5146195027462592  1.0000
  C   C46       1.0  0.7678172063472557  0.2661641187668015  0.9853804977293286  1.0000
  C   C47       1.0  0.7678172066045073  0.23383588132945482  0.4853804972099655  1.0000
  C   C48       1.0  0.232182793969036  0.7338358805610844  0.014619502226896144  1.0000
  N   N1        1.0  0.8099985951841864  0.7061365964319756  0.3039215556831395  1.0000
  N   N2        1.0  0.19000140539007437  0.20613659633571924  0.19607844437218058  1.0000
  N   N3        1.0  0.19000140513210528  0.2938634037605371  0.6960784442730851  1.0000
  N   N4        1.0  0.809998594926935  0.7938634038567934  0.8039215562025026  1.0000
  N   N5        1.0  0.78624261920814  0.9029906321829397  0.29684709461166003  1.0000
  N   N6        1.0  0.21375738136612088  0.40299063208668334  0.20315290544366002  1.0000
  N   N7        1.0  0.2137573811081518  0.09700936800957306  0.7031529053445646  1.0000
  N   N8        1.0  0.7862426189501709  0.5970093672412027  0.7968470945125647  1.0000
  N   N9        1.0  0.7195998515178911  0.6750454471188071  0.1712532594246521  1.0000
  N   N10       1.0  0.28040014824114246  0.17504544702255068  0.3287467406061651  1.0000
  N   N11       1.0  0.28040014798317336  0.3249545530737057  0.8287467405070698  1.0000
  N   N12       1.0  0.7195998520751493  0.824954553169962  0.6712532593500595  1.0000
  N   N13       1.0  0.6944093854826972  0.8903169975476373  0.16234867196879318  1.0000
  N   N14       1.0  0.3055906142763364  0.3903169974513808  0.3376513280620241  1.0000
  N   N15       1.0  0.30559061401836723  0.10968300264487552  0.8376513279629287  1.0000
  N   N16       1.0  0.6944093852247282  0.6096830027411319  0.6623486718696977  1.0000
  N   N17       1.0  0.9123114605816234  0.7145601831570572  0.16497234387125512  1.0000
  N   N18       1.0  0.08768853917741021  0.2145601830608008  0.33502765615956215  1.0000
  N   N19       1.0  0.08768853973466842  0.28543981703545557  0.8350276560849696  1.0000
  N   N20       1.0  0.9123114603236543  0.7854398171317118  0.6649723437721596  1.0000
  N   N21       1.0  0.8889586492819456  0.9045728118806462  0.16105987856612175  1.0000
  N   N22       1.0  0.11104135047708784  0.40457281178438986  0.3389401214646955  1.0000
  N   N23       1.0  0.11104135021911875  0.09542718831186651  0.8389401213656  1.0000
  N   N24       1.0  0.8889586498392039  0.5954271884081228  0.6610598784915291  1.0000
  N   N25       1.0  0.7951236170152058  0.6571442365467239  0.38403076568322325  1.0000
  N   N26       1.0  0.20487638274382766  0.15714423645046757  0.115969234347594  1.0000
  N   N27       1.0  0.20487638330108587  0.3428557636457888  0.6159692342730014  1.0000
  N   N28       1.0  0.7951236167572368  0.8428557637420452  0.8840307655841277  1.0000
  N   N29       1.0  0.7655268429743065  0.965442811956883  0.37058589755864796  1.0000
  N   N30       1.0  0.23447315759923662  0.4654428118606266  0.12941410187821367  1.0000
  N   N31       1.0  0.2344731573419852  0.03455718823562981  0.6294141023975768  1.0000
  N   N32       1.0  0.7655268427170551  0.5345571883318861  0.870585898078011  1.0000
  N   N33       1.0  0.6660349908663598  0.5725493529079332  0.1473154713669641  1.0000
  N   N34       1.0  0.33396500889267366  0.07254935281167685  0.35268452866385314  1.0000
  N   N35       1.0  0.33396500944993185  0.42745064641995273  0.8526845285892607  1.0000
  N   N36       1.0  0.6660349906083909  0.927450646516209  0.6473154712678687  1.0000
  N   N37       1.0  0.6358728837935377  0.9890997176966098  0.13635409161303647  1.0000
  N   N38       1.0  0.3641271159654958  0.4890997176003535  0.36364590841778077  1.0000
  N   N39       1.0  0.364127116522754  0.010900282495902826  0.8636459083431882  1.0000
  N   N40       1.0  0.6358728835355686  0.5109002825921591  0.6363540915139411  1.0000
  N   N41       1.0  0.957594436093037  0.6087785201150131  0.18519943187093404  1.0000
  N   N42       1.0  0.042405563665996564  0.10877852088338356  0.3148005681598831  1.0000
  N   N43       1.0  0.042405563408745114  0.39122147921287276  0.8148005686792463  1.0000
  N   N44       1.0  0.9575944366502952  0.8912214793091291  0.6851994317963416  1.0000
  N   N45       1.0  0.9597867267004773  0.973533324556185  0.11440498782446035  1.0000
  N   N46       1.0  0.040213273058556175  0.4735333244599287  0.3855950122063569  1.0000
  N   N47       1.0  0.04021327280058707  0.026466674771700886  0.8855950121072615  1.0000
  N   N48       1.0  0.9597867272584533  0.5264666748679572  0.6144049883683264  1.0000
  N   N49       1.0  0.5191251542632567  0.7515702294029183  0.5430851314296098  1.0000
  N   N50       1.0  0.48087484579578355  0.2515702293066619  0.9569148690459781  1.0000
  N   N51       1.0  0.48087484605375275  0.2484297707895944  0.4569148691450735  1.0000
  N   N52       1.0  0.5191251545205081  0.7484297708858507  0.043085130910246607  1.0000
  N   N53       1.0  0.5475573790624504  0.773552871827217  0.40499277106925036  1.0000
  N   N54       1.0  0.4524426206965832  0.2735528717309606  0.09500722896156684  1.0000
  N   N55       1.0  0.4524426204386141  0.22644712750066898  0.5950072288624714  1.0000
  N   N56       1.0  0.5475573788051988  0.7264471275969253  0.9049927715886135  1.0000
  N   N57       1.0  0.382945292200333  0.7819135223682817  0.2692869072888563  1.0000
  N   N58       1.0  0.6170547075587005  0.2819135222720254  0.23071309274196095  1.0000
  N   N59       1.0  0.6170547073007314  0.21808647782423093  0.7307130926428655  1.0000
  N   N60       1.0  0.38294529194236393  0.7180864779204872  0.7692869071897608  1.0000
  N   N61       1.0  0.19642077434048896  0.7992369780793896  0.2819641449425211  1.0000
  N   N62       1.0  0.8035792254185445  0.29923697798313337  0.21803585508829618  1.0000
  N   N63       1.0  0.8035792251605754  0.20076302124849618  0.7180358549892008  1.0000
  N   N64       1.0  0.19642077489774717  0.7007630213447524  0.7819641448679285  1.0000
  N   N65       1.0  0.08285178705669455  0.7993739012424214  0.43559280287339175  1.0000
  N   N66       1.0  0.9171482127023389  0.299373901146165  0.06440719715742552  1.0000
  N   N67       1.0  0.9171482132603148  0.20062609895009134  0.5644071977012916  1.0000
  N   N68       1.0  0.08285178679872547  0.7006260990463477  0.9355928027742964  1.0000
  N   N69       1.0  0.15267882727195634  0.7683104701348746  0.5665915882859169  1.0000
  N   N70       1.0  0.8473211727863662  0.26831047003861824  0.9334084115712123  1.0000
  N   N71       1.0  0.847321172229108  0.2316895300576381  0.43340841164580485  1.0000
  N   N72       1.0  0.15267882752992545  0.7316895301538945  0.06659158838501235  1.0000
  O   O1        1.0  0.8568521664937516  0.6920871053958942  0.44057785487006323  1.0000
  O   O2        1.0  0.14314783326528174  0.19208710529963788  0.05942214516075398  1.0000
  O   O3        1.0  0.14314783382325763  0.30791289479661843  0.5594221457046199  1.0000
  O   O4        1.0  0.8568521662357828  0.8079128948928748  0.9405778547709679  1.0000
  O   O5        1.0  0.7252651440890457  0.5818809542595691  0.3874658574503975  1.0000
  O   O6        1.0  0.2747348556699879  0.08188095416331273  0.11253414258041969  1.0000
  O   O7        1.0  0.27473485541201875  0.41811904593294363  0.6125341424813243  1.0000
  O   O8        1.0  0.725265144646304  0.9181190460292  0.887465857375805  1.0000
  O   O9        1.0  0.8406767727164596  0.9692698861708733  0.42325386217854516  1.0000
  O   O10       1.0  0.15932322704257393  0.4692698860746169  0.0767461378522721  1.0000
  O   O11       1.0  0.15932322678460487  0.030730114021639488  0.5767461377531767  1.0000
  O   O12       1.0  0.8406767732737178  0.530730113253269  0.9232538621039527  1.0000
  O   O13       1.0  0.6764754082542835  0.01413044777164744  0.37216868452578644  1.0000
  O   O14       1.0  0.32352459150474994  0.5141304478679037  0.12783131550503077  1.0000
  O   O15       1.0  0.32352459124678085  0.9858695524208653  0.6278313154059354  1.0000
  O   O16       1.0  0.6764754088115418  0.4858695523246089  0.872168684451194  1.0000
  O   O17       1.0  0.6055905544485658  0.5299112234915624  0.19810141926385905  1.0000
  O   O18       1.0  0.3944094453097501  0.02991122339530603  0.30189858014849974  1.0000
  O   O19       1.0  0.39440944586772597  0.47008877670095034  0.8018985806923656  1.0000
  O   O20       1.0  0.6055905541913144  0.9700887759325799  0.698101419783222  1.0000
  O   O21       1.0  0.6824153865920403  0.536397814487906  0.07715574989905999  1.0000
  O   O22       1.0  0.3175846131669932  0.03639781439164973  0.4228442501317572  1.0000
  O   O23       1.0  0.3175846129090241  0.46360218483997984  0.9228442500326619  1.0000
  O   O24       1.0  0.6824153863340712  0.9636021849362362  0.5771557497999645  1.0000
  O   O25       1.0  0.6532630802198077  0.02520912179603911  0.06618029394629946  1.0000
  O   O26       1.0  0.34673691953922575  0.5252091218922954  0.43381970608451775  1.0000
  O   O27       1.0  0.34673691928125666  0.9747908775318468  0.9338197059854224  1.0000
  O   O28       1.0  0.653263080777066  0.4747908783002172  0.566180293871707  1.0000
  O   O29       1.0  0.5708151572356207  0.028594507466937435  0.18496738250904013  1.0000
  O   O30       1.0  0.42918484252341277  0.5285945075631938  0.3150326175217771  1.0000
  O   O31       1.0  0.42918484226616127  0.9714054927255753  0.8150326180411401  1.0000
  O   O32       1.0  0.570815157792879  0.4714054926293189  0.6849673824344475  1.0000
  O   O33       1.0  0.03761932903289075  0.6102234662486705  0.23408819123971544  1.0000
  O   O34       1.0  0.9623806707261428  0.11022346615241418  0.26591180879110177  1.0000
  O   O35       1.0  0.9623806704688913  0.3897765330792154  0.7659118093104649  1.0000
  O   O36       1.0  0.03761932959014898  0.8897765331754718  0.7340881911651229  1.0000
  O   O37       1.0  0.9154647597834046  0.5233639054326494  0.1509406237008543  1.0000
  O   O38       1.0  0.08453523997562895  0.02336390533639308  0.349059376329963  1.0000
  O   O39       1.0  0.08453523971765985  0.4766360947598633  0.8490593762308675  1.0000
  O   O40       1.0  0.9154647603406628  0.9766360948561196  0.6509406236262618  1.0000
  O   O41       1.0  0.05675315955515996  0.9720917245282035  0.136301827471045  1.0000
  O   O42       1.0  0.9432468402038735  0.47209172443194714  0.36369817255977227  1.0000
  O   O43       1.0  0.9432468407618494  0.02790827566430923  0.8636981731036382  1.0000
  O   O44       1.0  0.05675315929719086  0.5279082757605655  0.6363018273719496  1.0000
  O   O45       1.0  0.9147850269045434  0.03208804152130874  0.05951549234135598  1.0000
  O   O46       1.0  0.08521497366971735  0.5320880416175651  0.44048450771396414  1.0000
  O   O47       1.0  0.08521497341174826  0.9679119578065771  0.9404845076148688  1.0000
  O   O48       1.0  0.9147850266465744  0.46791195771032085  0.5595154922422606  1.0000
  O   O49       1.0  0.5954867756664112  0.7613624589474728  0.48312857151929467  1.0000
  O   O50       1.0  0.4045132240926223  0.26136245885121656  0.016871428511522533  1.0000
  O   O51       1.0  0.40451322464988054  0.2386375412450398  0.51687142843693  1.0000
  O   O52       1.0  0.5954867754084421  0.7386375413412961  0.9831285714201993  1.0000
  O   O53       1.0  0.2722113756128682  0.7962114786110169  0.22442339698473113  1.0000
  O   O54       1.0  0.7277886241461653  0.2962114785147607  0.2755766030460861  1.0000
  O   O55       1.0  0.7277886238881962  0.20378852158149566  0.7755766029469908  1.0000
  O   O56       1.0  0.2722113761701264  0.7037885208131252  0.7244233969101386  1.0000
  O   O57       1.0  0.060189795406287015  0.7887257179795693  0.5175176276412364  1.0000
  O   O58       1.0  0.9398102046520356  0.2887257178833129  0.9824823722158927  1.0000
  O   O59       1.0  0.9398102040947773  0.21127428221294342  0.48248237229048535  1.0000
  O   O60       1.0  0.06018979566425612  0.7112742823091998  0.01751762774033183  1.0000
  O   O61       1.0  0.3341046947295839  0.7445143871500755  0.5460724693227693  1.0000
  O   O62       1.0  0.6658953053287388  0.24451438705381903  0.95392753053436  1.0000
  O   O63       1.0  0.6658953055867077  0.2554856130424373  0.45392753063345537  1.0000
  O   O64       1.0  0.33410469498755296  0.7554856131386937  0.046072469421864756  1.0000
  O   O65       1.0  0.4642543937785747  0.7771276375684735  0.22910065084767026  1.0000
  O   O66       1.0  0.5357456059804588  0.27712763747221714  0.27089934918314695  1.0000
  O   O67       1.0  0.5357456065377171  0.22287236175941244  0.7708993491085545  1.0000
  O   O68       1.0  0.4642543935206056  0.7228723618556688  0.7291006507485749  1.0000
