data_image0
_chemical_formula_structural       H12C24N36O32
_chemical_formula_sum              "H12 C24 N36 O32"
_cell_length_a       8.302465247200429
_cell_length_b       11.514634273633272
_cell_length_c       11.8359084519758
_cell_angle_alpha    90.0
_cell_angle_beta     90.92830204019195
_cell_angle_gamma    90.0

_space_group_name_H-M_alt    "P 1"
_space_group_IT_number       1

loop_
  _space_group_symop_operation_xyz
  'x, y, z'

loop_
  _atom_site_type_symbol
  _atom_site_label
  _atom_site_symmetry_multiplicity
  _atom_site_fract_x
  _atom_site_fract_y
  _atom_site_fract_z
  _atom_site_occupancy
  H   H1        1.0  0.5233102782988135  0.34782412057767076  0.38270207087943386  1.0000
  H   H2        1.0  0.4766897223465432  0.8478241199856731  0.6172979293881274  1.0000
  H   H3        1.0  0.5032132948848423  0.5558280626120594  0.3996589687506517  1.0000
  H   H4        1.0  0.49678670576051437  0.055828062335597  0.6003410315169097  1.0000
  H   H5        1.0  0.6856456030668859  0.4863234338951396  0.09153131621911302  1.0000
  H   H6        1.0  0.314354396373851  0.986323433303142  0.9084686840345391  1.0000
  H   H7        1.0  0.11053273937208852  0.34408324101724613  0.18018801020598033  1.0000
  H   H8        1.0  0.8894672600689612  0.8440832412937085  0.8198119892027889  1.0000
  H   H9        1.0  0.09406180800736103  0.5554502677210865  0.18973180156259983  1.0000
  H   H10       1.0  0.905938191433376  0.055450267444624106  0.8102681986910523  1.0000
  H   H11       1.0  0.4518359134994158  0.484052235402984  0.9734193528985944  1.0000
  H   H12       1.0  0.5481640871462535  0.9840522356794464  0.026580646524083883  1.0000
  C   C1        1.0  0.4729280747074288  0.3883358996680552  0.3063845286219242  1.0000
  C   C2        1.0  0.5270719247333082  0.8883358990760576  0.693615471631728  1.0000
  C   C3        1.0  0.4610884924643657  0.5247757294243047  0.31705614568926244  1.0000
  C   C4        1.0  0.538911508180991  0.024775729147842315  0.6829438545782989  1.0000
  C   C5        1.0  0.5776709623705585  0.47682285511857364  0.14227656767589972  1.0000
  C   C6        1.0  0.4223290382747982  0.9768228553950361  0.8577234325916616  1.0000
  C   C7        1.0  0.2289387473296214  0.38556548862052004  0.1862383045969002  1.0000
  C   C8        1.0  0.7710612533157354  0.8855654880285225  0.813761695670661  1.0000
  C   C9        1.0  0.2179476789438069  0.5229890326425312  0.1939891361994605  1.0000
  C   C10       1.0  0.7820523217015498  0.02298903323452883  0.8060108640681009  1.0000
  C   C11       1.0  0.4201726819195435  0.47537737455840395  0.062415062069454214  1.0000
  C   C12       1.0  0.5798273187261259  0.9753773748348664  0.9375849373532241  1.0000
  C   C13       1.0  0.9985291312908833  0.930805128960308  0.21493908615097104  1.0000
  C   C14       1.0  0.0014708681498538697  0.4308051286838455  0.785060914102681  1.0000
  C   C15       1.0  0.16441082248518524  0.9393786882809072  0.18411831920600344  1.0000
  C   C16       1.0  0.8355891781601715  0.43937868800444474  0.8158816810615579  1.0000
  C   C17       1.0  0.3049280328287188  0.9494173770705884  0.25724548887777154  1.0000
  C   C18       1.0  0.6950719666120182  0.44941737766258594  0.7427545113758806  1.0000
  C   C19       1.0  0.30528721478073934  0.9512316995669473  0.3775746812840511  1.0000
  C   C20       1.0  0.6947127858649299  0.45123169929048496  0.6224253181386272  1.0000
  C   C21       1.0  0.16526015115573994  0.9511352562085558  0.4484646726122881  1.0000
  C   C22       1.0  0.8347398494896168  0.45113525593209336  0.5515353276552732  1.0000
  C   C23       1.0  0.9985048802615818  0.943224241595735  0.41557632201338995  1.0000
  C   C24       1.0  0.001495120383774824  0.44322424131927257  0.5844236782541714  1.0000
  N   N1        1.0  0.5797499847860544  0.36997658968249403  0.2094232137259718  1.0000
  N   N2        1.0  0.4202500146549953  0.8699765890904964  0.7905767856827973  1.0000
  N   N3        1.0  0.5624621590696068  0.5679425680913538  0.22630387007680705  1.0000
  N   N4        1.0  0.43753784157606246  0.06794256781489127  0.7736961293458713  1.0000
  N   N5        1.0  0.31500511537857406  0.3420789150915111  0.28408815771967694  1.0000
  N   N6        1.0  0.6849948840624757  0.8420789153679736  0.7159118416890922  1.0000
  N   N7        1.0  0.2946831571422354  0.5587330363355059  0.29913501996125147  1.0000
  N   N8        1.0  0.7053168435031213  0.058733036927503465  0.70086498030631  1.0000
  N   N9        1.0  0.3206364967785401  0.3729941696745537  0.08239043002254991  1.0000
  N   N10       1.0  0.6793635038668167  0.8729941699510161  0.9176095702450116  1.0000
  N   N11       1.0  0.30894638449293554  0.5652485155263466  0.09676953594939719  1.0000
  N   N12       1.0  0.6910536149478015  0.06524851611834427  0.9032304643042548  1.0000
  N   N13       1.0  0.7342610178777083  0.32049313615199704  0.23666475066433215  1.0000
  N   N14       1.0  0.26573898156334147  0.8204931364284596  0.7633352487444369  1.0000
  N   N15       1.0  0.6984724254224597  0.6373670943944164  0.25413847518819244  1.0000
  N   N16       1.0  0.3015275740182775  0.13736709411795395  0.7458615250654596  1.0000
  N   N17       1.0  0.2653183398047433  0.24071521023875436  0.3392222542693693  1.0000
  N   N18       1.0  0.7346816608406135  0.7407152096467569  0.6607777459981921  1.0000
  N   N19       1.0  0.24412968765679535  0.6619273629430731  0.3508807033715165  1.0000
  N   N20       1.0  0.7558703129885613  0.16192736266661067  0.6491192968960449  1.0000
  N   N21       1.0  0.3629418663768382  0.26576255374495816  0.04093956778621843  1.0000
  N   N22       1.0  0.6370581342685184  0.7657625540214206  0.959060432481343  1.0000
  N   N23       1.0  0.22336308142851347  0.6257407416316066  0.009702332311663522  1.0000
  N   N24       1.0  0.7766369192168432  0.12574074135514418  0.9902976679558978  1.0000
  N   N25       1.0  0.9082951441153923  0.9181365338027501  0.12371866726358617  1.0000
  N   N26       1.0  0.09170485652996437  0.41813653352628766  0.8762813330039753  1.0000
  N   N27       1.0  0.17174030051084543  0.9323038860714666  0.07319261971588947  1.0000
  N   N28       1.0  0.8282597001348239  0.43230388579500423  0.926807379706789  1.0000
  N   N29       1.0  0.4550654143673468  0.9549469456601697  0.22269457018156255  1.0000
  N   N30       1.0  0.5449345862780098  0.4549469453837072  0.7773054300859988  1.0000
  N   N31       1.0  0.4552977867166759  0.9563966695162044  0.41519740281625805  1.0000
  N   N32       1.0  0.5447022139286808  0.45639666923974187  0.5848025974513034  1.0000
  N   N33       1.0  0.1736303306248951  0.9603058557682654  0.55924369110473  1.0000
  N   N34       1.0  0.8263696700207742  0.4603058554918031  0.44075630831794826  1.0000
  N   N35       1.0  0.9084696365848962  0.9466492839429598  0.505801882726424  1.0000
  N   N36       1.0  0.09153036285584087  0.44664928366649737  0.4941981175272281  1.0000
  O   O1        1.0  0.7350075967047075  0.24592359711191178  0.31034735253625195  1.0000
  O   O2        1.0  0.26499240273602953  0.7459235965199141  0.6896526477174001  1.0000
  O   O3        1.0  0.8476680610224259  0.35417951913058626  0.17971428177638682  1.0000
  O   O4        1.0  0.15233193962324348  0.8541795194070487  0.8202857176462915  1.0000
  O   O5        1.0  0.8090438013129521  0.6366730567193944  0.18605124309640028  1.0000
  O   O6        1.0  0.1909561993324046  0.13667305644293204  0.813948757171161  1.0000
  O   O7        1.0  0.6883486446851788  0.6955033177508857  0.34083738777423134  1.0000
  O   O8        1.0  0.31165135596017796  0.1955033174744232  0.65916261249333  1.0000
  O   O9        1.0  0.13277744988869142  0.20069301074473705  0.3108066781777126  1.0000
  O   O10       1.0  0.8672225495523583  0.7006930110211995  0.6891933212310564  1.0000
  O   O11       1.0  0.3574897574986986  0.20294380911002655  0.41299734315511677  1.0000
  O   O12       1.0  0.6425102419423511  0.7029438093864889  0.5870026562536523  1.0000
  O   O13       1.0  0.3241226391906402  0.6954590097869612  0.4330196275044599  1.0000
  O   O14       1.0  0.6758773602500968  0.19545901037895874  0.5669803727491922  1.0000
  O   O15       1.0  0.12105167541434411  0.7079594658656744  0.3111794245577275  1.0000
  O   O16       1.0  0.8789483252313253  0.20795946558921205  0.6888205748649509  1.0000
  O   O17       1.0  0.46203576991806045  0.2654292344307018  0.964044065397119  1.0000
  O   O18       1.0  0.5379642307276089  0.7654292338387042  0.035955934025559376  1.0000
  O   O19       1.0  0.29561027266772183  0.1806261215575487  0.08288021596936934  1.0000
  O   O20       1.0  0.7043897279776348  0.6806261218340112  0.917119784298192  1.0000
  O   O21       1.0  0.29028855856661906  0.6316747746522178  0.9181731166570088  1.0000
  O   O22       1.0  0.7097114408744306  0.13167477437575528  0.08182688275176019  1.0000
  O   O23       1.0  0.09500653112850407  0.670301382274351  0.03669970029557176  1.0000
  O   O24       1.0  0.9049934695171653  0.17030138286634863  0.9633002991271067  1.0000
  O   O25       1.0  0.015455474723218452  0.9197592436132377  0.03579347475088573  1.0000
  O   O26       1.0  0.9845445247175185  0.41975924333677517  0.9642065255027663  1.0000
  O   O27       1.0  0.54793383138968  0.9592125852656299  0.3200418813140267  1.0000
  O   O28       1.0  0.4520661680510571  0.45921258585762753  0.6799581189396254  1.0000
  O   O29       1.0  0.01683185610975021  0.9574480429000487  0.5951618605780126  1.0000
  O   O30       1.0  0.9831681445356064  0.4574480426235862  0.4048381396895488  1.0000
  O   O31       1.0  0.9219418523677119  0.9343372307217273  0.3147344052662118  1.0000
  O   O32       1.0  0.07805814707302522  0.4343372304452649  0.6852655949874402  1.0000
