data_image0
_chemical_formula_structural       H36C20N6O10F12P2S4Br5
_chemical_formula_sum              "H36 C20 N6 O10 F12 P2 S4 Br5"
_cell_length_a       7.625488463721132
_cell_length_b       11.901110965065776
_cell_length_c       13.24619490638662
_cell_angle_alpha    106.9027863647771
_cell_angle_beta     102.14622294143109
_cell_angle_gamma    92.30600922680053

_space_group_name_H-M_alt    "P 1"
_space_group_IT_number       1

loop_
  _space_group_symop_operation_xyz
  'x, y, z'

loop_
  _atom_site_type_symbol
  _atom_site_label
  _atom_site_symmetry_multiplicity
  _atom_site_fract_x
  _atom_site_fract_y
  _atom_site_fract_z
  _atom_site_occupancy
  H   H1        1.0  0.8264103544093301  0.20837492994767326  0.9517553850015403  1.0000
  H   H2        1.0  0.17358964561140403  0.7916250691798458  0.04824461467943148  1.0000
  H   H3        1.0  0.9340528147114078  0.35572989041720937  0.016793723017467375  1.0000
  H   H4        1.0  0.06594718530932633  0.6442701087103097  0.9832062766635046  1.0000
  H   H5        1.0  0.015797161284438695  0.2363270546162675  0.06404981060917744  1.0000
  H   H6        1.0  0.984202839052253  0.7636729456183902  0.9359501898882706  1.0000
  H   H7        1.0  0.1443677557068545  0.08127061787692388  0.937978892402841  1.0000
  H   H8        1.0  0.8556322446298374  0.9187293823577338  0.06202110809460702  1.0000
  H   H9        1.0  0.22528767667244617  0.11746639765812554  0.8333780688942496  1.0000
  H   H10       1.0  0.7747123233868558  0.8825336023121081  0.16662193079230267  1.0000
  H   H11       1.0  0.9927320376382116  0.06764296790836832  0.8126436785002029  1.0000
  H   H12       1.0  0.007267961378487968  0.9323570323085705  0.18735632197515523  1.0000
  H   H13       1.0  0.5597211269859855  0.27259805702539075  0.8774196352863876  1.0000
  H   H14       1.0  0.4402788733507064  0.7274019432092668  0.12258036521106051  1.0000
  H   H15       1.0  0.4895811082514745  0.3998473521898642  0.9631485265806226  1.0000
  H   H16       1.0  0.5104188918078274  0.6001526477803693  0.03685147310592972  1.0000
  H   H17       1.0  0.5628516574576029  0.40900061171344276  0.8471798677659935  1.0000
  H   H18       1.0  0.4371483428790888  0.5909993885212149  0.1528201327314545  1.0000
  H   H19       1.0  0.35700326675278177  0.3028743669963637  0.6626556674268954  1.0000
  H   H20       1.0  0.6429967333065201  0.69712563297387  0.33734433225965693  1.0000
  H   H21       1.0  0.14334934068282193  0.23365556983298316  0.6581955619436637  1.0000
  H   H22       1.0  0.8566506593764799  0.7663444301372504  0.34180443774288866  1.0000
  H   H23       1.0  0.3421603094263644  0.16678240963560884  0.6926145559698074  1.0000
  H   H24       1.0  0.6578396908717596  0.8332175897563343  0.3073854445220603  1.0000
  H   H25       1.0  0.7904971212695415  0.4882918814203498  0.7530102597879885  1.0000
  H   H26       1.0  0.20950287906715032  0.5117081188143079  0.2469897407094595  1.0000
  H   H27       1.0  0.9295028480495645  0.4464701831343468  0.6591012338278893  1.0000
  H   H28       1.0  0.07049715200973729  0.5535298168358869  0.34089876585866297  1.0000
  H   H29       1.0  0.026369468659271804  0.5344387161390934  0.7963013202939061  1.0000
  H   H30       1.0  0.97363053140003  0.4655612838311401  0.2036986793926462  1.0000
  H   H31       1.0  0.687929197305897  0.2845728980301558  0.7034516416288916  1.0000
  H   H32       1.0  0.31207080275340476  0.7154271019400777  0.29654835805766067  1.0000
  H   H33       1.0  0.8252291590850842  0.1885958866683331  0.7570924263568124  1.0000
  H   H34       1.0  0.17477084097421774  0.8114041133019003  0.2429075733297399  1.0000
  H   H35       1.0  0.8458902753261369  0.21269493445127471  0.6331361847478644  1.0000
  H   H36       1.0  0.15410972473316495  0.787305065518959  0.366863814938688  1.0000
  C   C1        1.0  0.5472208881776488  0.846286812284905  0.6524447208629944  1.0000
  C   C2        1.0  0.45277911215904293  0.15371318794975286  0.3475552796344537  1.0000
  C   C3        1.0  0.44823307349995817  0.8309141050904831  0.8518281757279484  1.0000
  C   C4        1.0  0.5517669268367337  0.16908589514417444  0.1481718247694996  1.0000
  C   C5        1.0  0.4329978993961414  0.6935503994686683  0.8094555311190497  1.0000
  C   C6        1.0  0.5670021006631605  0.3064496005015653  0.1905444685675026  1.0000
  C   C7        1.0  0.376027861480701  0.6366632566177424  0.6839695738819571  1.0000
  C   C8        1.0  0.6239721388559908  0.36333674361691526  0.31603042661549086  1.0000
  C   C9        1.0  0.9573867943585683  0.2623767343438206  0.9920707073009684  1.0000
  C   C10       1.0  0.04261320570073363  0.737623265626413  0.007929292385584031  1.0000
  C   C11       1.0  0.11166530485174968  0.12153651243892696  0.8724628953840827  1.0000
  C   C12       1.0  0.8883346952075523  0.8784634875313068  0.1275371043024696  1.0000
  C   C13       1.0  0.488109577974764  0.3515157941480787  0.8791799780804227  1.0000
  C   C14       1.0  0.5118904210419355  0.64848420606886  0.12082002239493538  1.0000
  C   C15       1.0  0.28502618167639215  0.2517950912090241  0.7017692949419838  1.0000
  C   C16       1.0  0.7149738183829097  0.7482049087612095  0.2982307047445684  1.0000
  C   C17       1.0  0.9247019002837031  0.4621072257885687  0.7446799780673903  1.0000
  C   C18       1.0  0.0752980997755988  0.5378927741816649  0.25532002161916206  1.0000
  C   C19       1.0  0.8234205800748668  0.25491312555737206  0.7146289642533163  1.0000
  C   C20       1.0  0.17657942026182505  0.7450868746772855  0.2853710362441317  1.0000
  N   N1        1.0  0.30382361956973675  0.3170629177845425  0.8150732541762014  1.0000
  N   N2        1.0  0.6961763804895652  0.682937082185691  0.18492674551035088  1.0000
  N   N3        1.0  0.9552143328200754  0.3559323508567147  0.7761672124898439  1.0000
  N   N4        1.0  0.044785667239226425  0.6440676491135188  0.2238327871967084  1.0000
  N   N5        1.0  0.07805769334712354  0.2431009436601182  0.917981089701902  1.0000
  N   N6        1.0  0.9219423066736104  0.7568990554674009  0.08201890997906998  1.0000
  O   O1        1.0  0.7907681475633827  0.8757063847023391  0.8410298458182689  1.0000
  O   O2        1.0  0.20923185249591922  0.12429361526789444  0.1589701538682833  1.0000
  O   O3        1.0  0.5838575257671923  0.03244504637424754  0.8288764442503638  1.0000
  O   O4        1.0  0.4161424745694996  0.9675549538604101  0.17112355624708425  1.0000
  O   O5        1.0  0.7083718472221208  0.6475944096058572  0.6445768057735014  1.0000
  O   O6        1.0  0.29162815283718113  0.35240559036437635  0.35542319391305083  1.0000
  O   O7        1.0  0.44199662637684684  0.6426480732927827  0.4935580646157627  1.0000
  O   O8        1.0  0.558003373959845  0.357351926941875  0.5064419358816854  1.0000
  O   O9        1.0  0.18200649016538908  0.46967892701912917  0.9620160735876566  1.0000
  O   O10       1.0  0.8179935098939128  0.5303210729511044  0.037983926098895705  1.0000
  F   F1        1.0  0.2836038572918108  0.8684135925706757  0.8276725336707932  1.0000
  F   F2        1.0  0.716396142767491  0.13158640739955793  0.1723274660157592  1.0000
  F   F3        1.0  0.5102520684760292  0.8655712896013735  0.961308128948895  1.0000
  F   F4        1.0  0.4897479318606626  0.13442871063328402  0.038691871548553025  1.0000
  F   F5        1.0  0.30598288817703767  0.6518024232453247  0.8525918353900658  1.0000
  F   F6        1.0  0.6940171121596543  0.34819757698933296  0.1474081651073824  1.0000
  F   F7        1.0  0.5939272409339957  0.6574745795234732  0.8472065141456582  1.0000
  F   F8        1.0  0.40607275940269605  0.3425254207111844  0.1527934863517898  1.0000
  F   F9        1.0  0.3784879765979688  0.5178938459547157  0.66122714324984  1.0000
  F   F10       1.0  0.6215120234613332  0.48210615401551793  0.33877285643671234  1.0000
  F   F11       1.0  0.20660025120806735  0.6596614230880389  0.6454358592057217  1.0000
  F   F12       1.0  0.7933997488512344  0.3403385768821947  0.35456414048083074  1.0000
  P   P1        1.0  0.13269082167855661  0.3549769920284822  0.8747215012932849  1.0000
  P   P2        1.0  0.8673091783807454  0.6450230079417514  0.1252784983932676  1.0000
  S   S1        1.0  0.617448401897789  0.9102707484370764  0.8011376535380685  1.0000
  S   S2        1.0  0.38255159816151274  0.08972925153315713  0.1988623461484837  1.0000
  S   S3        1.0  0.5354521535058728  0.6831150929227752  0.6060676282685279  1.0000
  S   S4        1.0  0.4645478465534291  0.3168849070474585  0.3939323714180245  1.0000
  Br  Br1       1.0  0.31983352629781336  0.9009111978218401  0.5968220665505536  1.0000
  Br  Br2       1.0  0.6801664740388784  0.09908880241281741  0.4031779339468944  1.0000
  Br  Br3       1.0  0.7437872145385255  0.9023789080896258  0.5960318171135264  1.0000
  Br  Br4       1.0  0.2562127857981663  0.09762109214503169  0.4039681833839215  1.0000
  Br  Br5       1.0  0.9999999996876539  0.9999999997451781  0.500000000322002  1.0000
