data_image0
_chemical_formula_structural       H132C104N12O2Cl6Br10
_chemical_formula_sum              "H132 C104 N12 O2 Cl6 Br10"
_cell_length_a       9.936161897673292
_cell_length_b       14.659613708393094
_cell_length_c       20.04023142534678
_cell_angle_alpha    77.49429745654976
_cell_angle_beta     85.84612699542167
_cell_angle_gamma    75.53354666648869

_space_group_name_H-M_alt    "P 1"
_space_group_IT_number       1

loop_
  _space_group_symop_operation_xyz
  'x, y, z'

loop_
  _atom_site_type_symbol
  _atom_site_label
  _atom_site_symmetry_multiplicity
  _atom_site_fract_x
  _atom_site_fract_y
  _atom_site_fract_z
  _atom_site_occupancy
  H   H1        1.0  0.07248742309236704  0.42901887232205627  0.7806322245588788  1.0000
  H   H2        1.0  0.927512577455574  0.5709811273847377  0.219367775625816  1.0000
  H   H3        1.0  0.9932638732441245  0.5349022724360906  0.6266774380430908  1.0000
  H   H4        1.0  0.006736127303816345  0.4650977272707035  0.37332256214160403  1.0000
  H   H5        1.0  0.1119694766891417  0.5873649908941332  0.579076205311918  1.0000
  H   H6        1.0  0.8880305238808239  0.41263500896164784  0.4209237943615595  1.0000
  H   H7        1.0  0.5620057986393966  0.7612292797678554  0.6080129701099862  1.0000
  H   H8        1.0  0.4379942009224743  0.23877072009297523  0.3919870295623534  1.0000
  H   H9        1.0  0.0034573360346840513  0.7402154793957982  0.43389775619418786  1.0000
  H   H10       1.0  0.9965426645132568  0.25978452031099564  0.5661022439905069  1.0000
  H   H11       1.0  0.5429413051252866  0.8843519821618469  0.5259797158471886  1.0000
  H   H12       1.0  0.45705869443658437  0.11564801769898371  0.47402028382515093  1.0000
  H   H13       1.0  0.17095460859973038  0.7084620878470873  0.6144145508155807  1.0000
  H   H14       1.0  0.8290453917172996  0.2915379127129317  0.3855854488586846  1.0000
  H   H15       1.0  0.9964911726020301  0.5912623745811946  0.49275505009578713  1.0000
  H   H16       1.0  0.0035088279679354054  0.40873762527458674  0.5072449495776904  1.0000
  H   H17       1.0  0.8532912105801389  0.5626191530487661  0.5434885002418082  1.0000
  H   H18       1.0  0.14670878973689086  0.43738084751125295  0.45651149943245717  1.0000
  H   H19       1.0  0.6500999409271957  0.6529963766519726  0.6945034047077338  1.0000
  H   H20       1.0  0.34990005838173954  0.3470036239130958  0.3054965949653935  1.0000
  H   H21       1.0  0.7684053096203894  0.5790301744271719  0.6463346592999673  1.0000
  H   H22       1.0  0.23159469092755144  0.42096982527962207  0.35366534088472756  1.0000
  H   H23       1.0  0.6540865006196339  0.9825586409730319  0.4313798460955256  1.0000
  H   H24       1.0  0.3459134989202122  0.017441358738811516  0.5686201540880312  1.0000
  H   H25       1.0  0.6970995816042646  0.804389974835898  0.7140557531763839  1.0000
  H   H26       1.0  0.3029004179355816  0.19561002487594548  0.28594424700717275  1.0000
  H   H27       1.0  0.11069833599569497  0.847435557903207  0.671836507813734  1.0000
  H   H28       1.0  0.8893016645522456  0.1525644418035871  0.32816349237096076  1.0000
  H   H29       1.0  0.47953336223735327  0.690776827309226  0.5305241912403579  1.0000
  H   H30       1.0  0.520466637302493  0.3092231724026175  0.4694758089431988  1.0000
  H   H31       1.0  0.5008342426408595  0.6141083893832988  0.6135043279477188  1.0000
  H   H32       1.0  0.4991657569210115  0.38589161047753173  0.3864956717246207  1.0000
  H   H33       1.0  0.6239073745339843  0.5880193720148285  0.5451709241372641  1.0000
  H   H34       1.0  0.3760926250278866  0.41198062784600226  0.4548290755350754  1.0000
  H   H35       1.0  0.8709923939139131  0.9863491350422451  0.6994412123353126  1.0000
  H   H36       1.0  0.12900760537299727  0.013650865373836595  0.3005587878490319  1.0000
  H   H37       1.0  0.9398206099506584  0.9063201202994944  0.7751198791864287  1.0000
  H   H38       1.0  0.060179389589187816  0.09367987941234901  0.22488012099712817  1.0000
  H   H39       1.0  0.7603167758434861  0.9282515737893051  0.757420030354413  1.0000
  H   H40       1.0  0.2396832244735438  0.07174842677071393  0.2425799693198523  1.0000
  H   H41       1.0  0.00832645201568154  0.8854905998745193  0.35528118901868366  1.0000
  H   H42       1.0  0.9916735475241647  0.1145093998373242  0.6447188111648731  1.0000
  H   H43       1.0  0.919696739403758  0.9928382195263062  0.3830232568026971  1.0000
  H   H44       1.0  0.08030326114418292  0.007161780180487865  0.6169767433819976  1.0000
  H   H45       1.0  0.8415487253246914  0.9504575015894172  0.3231857879475589  1.0000
  H   H46       1.0  0.15845127522324923  0.049542498117376856  0.6768142122371359  1.0000
  H   H47       1.0  0.7574624601354076  0.3630448619978478  0.6913220331367717  1.0000
  H   H48       1.0  0.24253753915150267  0.6369551384182336  0.3086779670475729  1.0000
  H   H49       1.0  0.6032879605419418  0.3965984646349835  0.7313258107378169  1.0000
  H   H50       1.0  0.396712040005999  0.6034015350718105  0.268674189446878  1.0000
  H   H51       1.0  0.37609060920721143  0.14756913953077655  0.7371781264109941  1.0000
  H   H52       1.0  0.6239093903546596  0.852430860330054  0.2628218732613453  1.0000
  H   H53       1.0  0.9184908552419908  0.23863715602484648  0.7439272720151312  1.0000
  H   H54       1.0  0.0815091440669445  0.7613628445402222  0.2560727276579961  1.0000
  H   H55       1.0  0.4784639514400495  0.043094721379769226  0.678300790904814  1.0000
  H   H56       1.0  0.5215360480997967  0.9569052783320742  0.3216992092787428  1.0000
  H   H57       1.0  0.6578201163161631  0.9885222420592022  0.5939838083565057  1.0000
  H   H58       1.0  0.3421798840008668  0.011477758500816681  0.4060161913177596  1.0000
  H   H59       1.0  0.7554822502193906  0.2662232101202203  0.5524576517457126  1.0000
  H   H60       1.0  0.24451774932045545  0.7337767895916233  0.4475423484378442  1.0000
  H   H61       1.0  0.982032786862002  0.08277715516562761  0.8255180423267281  1.0000
  H   H62       1.0  0.01796721368593866  0.9172228445411664  0.17448195785796672  1.0000
  H   H63       1.0  0.4774282649637666  0.3856697533956148  0.6509221511486525  1.0000
  H   H64       1.0  0.522571734323144  0.6143302470204667  0.349077849035692  1.0000
  H   H65       1.0  0.6319401133234284  0.38979522761929547  0.6009216699219453  1.0000
  H   H66       1.0  0.36805988598550704  0.610204772945773  0.399078329751182  1.0000
  H   H67       1.0  0.4106950452347085  0.3311276703892784  0.7564054989931035  1.0000
  H   H68       1.0  0.5893049550602966  0.6688723300217536  0.24359450119237908  1.0000
  H   H69       1.0  0.3745870629068608  0.22877033092909793  0.8133255008097243  1.0000
  H   H70       1.0  0.6254129376410801  0.7712296687776962  0.18667449937497044  1.0000
  H   H71       1.0  0.5469317526412875  0.08529929997973135  0.857892903778421  1.0000
  H   H72       1.0  0.4530682468985588  0.9147006997321121  0.14210709640513572  1.0000
  H   H73       1.0  0.29422236274125274  0.34680819651771794  0.6536700509685374  1.0000
  H   H74       1.0  0.705777637806688  0.653191803189076  0.3463299492161575  1.0000
  H   H75       1.0  0.19452275219129803  0.2847516561609545  0.716978174257112  1.0000
  H   H76       1.0  0.805477247348548  0.715248343550889  0.28302182592644476  1.0000
  H   H77       1.0  0.24685573903472077  0.24130667559889526  0.6400074363363262  1.0000
  H   H78       1.0  0.7531442602521896  0.7586933248171863  0.35999256384801837  1.0000
  H   H79       1.0  0.9127816897523908  0.9382652389101  0.8889964827856494  1.0000
  H   H80       1.0  0.08721830978745548  0.06173476080174341  0.11100351739790738  1.0000
  H   H81       1.0  0.7353148401589105  0.9332280780643407  0.8965331056024486  1.0000
  H   H82       1.0  0.264685159150025  0.06677192250072786  0.10346689407067872  1.0000
  H   H83       1.0  0.803411510108569  0.9880645466840383  0.9523910601934935  1.0000
  H   H84       1.0  0.1965884904393718  0.011935453022755595  0.04760893999120127  1.0000
  H   H85       1.0  0.8682041899736093  0.014397639196180659  0.5243390120305366  1.0000
  H   H86       1.0  0.13179581059635612  0.9856023606596005  0.4756609876429409  1.0000
  H   H87       1.0  0.9092131882085928  0.12911920144086567  0.5065304732905389  1.0000
  H   H88       1.0  0.09078681133125348  0.8708807982709779  0.49346952689301804  1.0000
  H   H89       1.0  0.7740954108229218  0.1099491574601796  0.4623596864346261  1.0000
  H   H90       1.0  0.22590458846398873  0.8900508429559018  0.5376403137497184  1.0000
  H   H91       1.0  0.37392184054344485  0.8780151378471713  0.8355282680129474  1.0000
  H   H92       1.0  0.6260781589964015  0.12198486186467201  0.16447173217060926  1.0000
  H   H93       1.0  0.3700888801110684  0.8305861715698599  0.7662370924957413  1.0000
  H   H94       1.0  0.6299111191758423  0.16941382884622133  0.2337629076886032  1.0000
  H   H95       1.0  0.5901772465233611  0.7794342575435413  0.8201990988811122  1.0000
  H   H96       1.0  0.4098227537716439  0.2205657428674907  0.17980090130437038  1.0000
  H   H97       1.0  0.5156967442218746  0.6859432048169171  0.8086139615651401  1.0000
  H   H98       1.0  0.4843032563260661  0.314056794889877  0.1913860386195547  1.0000
  H   H99       1.0  0.6349246531451445  0.5586514873689226  0.8921997323657432  1.0000
  H   H100      1.0  0.3650753474027964  0.44134851233787137  0.10780026781895156  1.0000
  H   H101      1.0  0.20160531003447968  0.9369681583557411  0.9330919628950097  1.0000
  H   H102      1.0  0.7983946905354858  0.06303184150004013  0.06690803677846792  1.0000
  H   H103      1.0  0.21383115716500883  0.840964682073065  0.006226013580872324  1.0000
  H   H104      1.0  0.7861688423968622  0.15903531778776564  0.993773986091467  1.0000
  H   H105      1.0  0.5992193272023713  0.5746197025998356  0.10447287560090497  1.0000
  H   H106      1.0  0.4007806733455694  0.4253802971069584  0.8955271245837898  1.0000
  H   H107      1.0  0.24306682324933218  0.7133905496530778  0.764765106367485  1.0000
  H   H108      1.0  0.7569331773206335  0.2866094502027034  0.23523489330599265  1.0000
  H   H109      1.0  0.4616868053565761  0.7432585460489202  0.07368092457322747  1.0000
  H   H110      1.0  0.5383131941832702  0.25674145366292334  0.9263190756103292  1.0000
  H   H111      1.0  0.41927753714689375  0.9074198170936086  0.031681456439977204  1.0000
  H   H112      1.0  0.580722463401047  0.09258018261318528  0.9683185437447176  1.0000
  H   H113      1.0  0.39866053777221166  0.987583794489552  0.9496507871180291  1.0000
  H   H114      1.0  0.6013394617896594  0.012416205371278785  0.05034921255431028  1.0000
  H   H115      1.0  0.5594383515944632  0.9016922274388239  0.9708320955622102  1.0000
  H   H116      1.0  0.4405616479453832  0.09830777227301944  0.029167904621346448  1.0000
  H   H117      1.0  0.02695580012196358  0.7833132630057047  0.9845681155371654  1.0000
  H   H118      1.0  0.9730441994178826  0.21668673670613883  0.015431884646391388  1.0000
  H   H119      1.0  0.029652627621823097  0.6602703449407082  0.807875462117935  1.0000
  H   H120      1.0  0.970347372673182  0.33972965547032374  0.19212453806754756  1.0000
  H   H121      1.0  0.6850975699669823  0.40659457510486163  0.9899906743725913  1.0000
  H   H122      1.0  0.31490243058095846  0.5934054246019324  0.010009325812103585  1.0000
  H   H123      1.0  0.7132904133634919  0.42416018298062425  0.07253425673999576  1.0000
  H   H124      1.0  0.2867095859454433  0.5758398175844444  0.9274657429331316  1.0000
  H   H125      1.0  0.8268899912235314  0.452660467726314  0.0027395112438987784  1.0000
  H   H126      1.0  0.1731100080633791  0.5473395326897673  0.9972604889404458  1.0000
  H   H127      1.0  0.8984428763058067  0.610355738799165  0.9359387793885852  1.0000
  H   H128      1.0  0.10155712325606436  0.3896442610616656  0.06406122028375431  1.0000
  H   H129      1.0  0.8005816273375785  0.7155600277115756  0.8848496410623348  1.0000
  H   H130      1.0  0.19941837197135692  0.28443997285349293  0.11515035861079242  1.0000
  H   H131      1.0  0.8369056662795764  0.7152793331596895  0.9705091902672118  1.0000
  H   H132      1.0  0.1630943330073341  0.28472066725639184  0.02949080991713274  1.0000
  C   C1        1.0  0.02835448276178024  0.4024178605714919  0.8307079185924073  1.0000
  C   C2        1.0  0.9716455178081852  0.5975821392842894  0.1692920810810702  1.0000
  C   C3        1.0  0.7110486205927782  0.7580138835813526  0.5321424717626766  1.0000
  C   C4        1.0  0.28895137972425167  0.24198611697866645  0.4678575279115887  1.0000
  C   C5        1.0  0.9029644864468915  0.7734728343648013  0.4544402642765136  1.0000
  C   C6        1.0  0.09703551309295459  0.2265271653470421  0.5455597359070433  1.0000
  C   C7        1.0  0.9683444102971303  0.6790582312334066  0.6324953971720866  1.0000
  C   C8        1.0  0.031655590272835175  0.3209417686223747  0.36750460250139094  1.0000
  C   C9        1.0  0.8414455374885225  0.7158521549483781  0.5065923607578369  1.0000
  C   C10       1.0  0.1585544617983882  0.28414784546770333  0.4934076394265077  1.0000
  C   C11       1.0  0.6445870863199215  0.8533653246721958  0.5053236582179838  1.0000
  C   C12       1.0  0.3554129139971085  0.14663467588782317  0.49467634145628153  1.0000
  C   C13       1.0  0.8386528549961032  0.869244774690766  0.42659268637002706  1.0000
  C   C14       1.0  0.16134714555183757  0.13075522501602804  0.5734073138146677  1.0000
  C   C15       1.0  0.8345150336684037  0.7044814395018598  0.6607004225221493  1.0000
  C   C16       1.0  0.16548496564053156  0.2955185610632087  0.3392995771509779  1.0000
  C   C17       1.0  0.06721599213543519  0.7302074464309452  0.6364908828020727  1.0000
  C   C18       1.0  0.9327840071514752  0.2697925539851362  0.3635091173822719  1.0000
  C   C19       1.0  0.8993652255458953  0.8358164250553609  0.6979599585316395  1.0000
  C   C20       1.0  0.10063477474910985  0.16418357535567107  0.302040041653843  1.0000
  C   C21       1.0  0.9198180048925909  0.6138793505735142  0.5318858737673191  1.0000
  C   C22       1.0  0.08018199565534985  0.3861206491332797  0.4681141264173758  1.0000
  C   C23       1.0  0.7253007878066243  0.6537944441529531  0.6515475492719734  1.0000
  C   C24       1.0  0.27469921173322187  0.34620555555889043  0.34845245091158333  1.0000
  C   C25       1.0  0.70740854481096  0.9083857166762523  0.45286277269298336  1.0000
  C   C26       1.0  0.29259145573698075  0.09161428303054182  0.5471372274917115  1.0000
  C   C27       1.0  0.8023153009024918  0.7829275808665634  0.6933311068851584  1.0000
  C   C28       1.0  0.19768469865937907  0.2170724189942673  0.306668892787181  1.0000
  C   C29       1.0  0.03204812998276492  0.8083253650621088  0.668675691181298  1.0000
  C   C30       1.0  0.9679518693261704  0.1916746355029596  0.3313243084918293  1.0000
  C   C31       1.0  0.5555430363320907  0.6449293891847654  0.568005490433194  1.0000
  C   C32       1.0  0.44445696297684456  0.3550706113803031  0.4319945092399332  1.0000
  C   C33       1.0  0.8651490413178119  0.9183737093872928  0.7343658203935033  1.0000
  C   C34       1.0  0.13485095897719332  0.0816262910237389  0.26563417979197934  1.0000
  C   C35       1.0  0.9061843945193713  0.9272262215824241  0.36904640143483874  1.0000
  C   C36       1.0  0.09381560605059415  0.07277377827335703  0.6309535982386388  1.0000
  C   C37       1.0  0.837427605856777  0.20526432531543354  0.770064885248061  1.0000
  C   C38       1.0  0.16257239446025287  0.7947356752445854  0.22993511442620426  1.0000
  C   C39       1.0  0.5177890708032563  0.18440162049598247  0.6629610904333058  1.0000
  C   C40       1.0  0.48221092848365404  0.8155983799200989  0.3370389097510389  1.0000
  C   C41       1.0  0.5402766336464687  0.09179358110944652  0.6506441200832151  1.0000
  C   C42       1.0  0.45972336591540225  0.9082064187513842  0.34935587958912445  1.0000
  C   C43       1.0  0.6411104167130208  0.06142969939343259  0.602897305564544  1.0000
  C   C44       1.0  0.35888958257388975  0.9385703010226488  0.3971026946198006  1.0000
  C   C45       1.0  0.5922034188315776  0.20790003586302025  0.7889970776482674  1.0000
  C   C46       1.0  0.40779658070826863  0.7920999638488233  0.21100292253528932  1.0000
  C   C47       1.0  0.5975509841860148  0.24781818975858766  0.6289839915549833  1.0000
  C   C48       1.0  0.4024490151229204  0.7521818108064809  0.37101600811814406  1.0000
  C   C49       1.0  0.69694880620054  0.21564459682966666  0.5805979067881953  1.0000
  C   C50       1.0  0.30305119308637046  0.7843554035864148  0.4194020933961492  1.0000
  C   C51       1.0  0.720005489552892  0.12339009172692479  0.5663115405137674  1.0000
  C   C52       1.0  0.27999451000897885  0.8766099081339059  0.433688459158572  1.0000
  C   C53       1.0  0.8722411297081549  0.1175233827083296  0.8164165048873832  1.0000
  C   C54       1.0  0.1277588708618106  0.8824766171474516  0.18358349478609445  1.0000
  C   C55       1.0  0.7691119215923924  0.07331139536409019  0.8497715854152597  1.0000
  C   C56       1.0  0.23088807895554844  0.9266886043427038  0.15022841476943505  1.0000
  C   C57       1.0  0.698252318671418  0.25005563456786684  0.7569710192644088  1.0000
  C   C58       1.0  0.30174768089045295  0.7499443652929638  0.24302898040793072  1.0000
  C   C59       1.0  0.5848616943548952  0.34606023123390556  0.6433817851604825  1.0000
  C   C60       1.0  0.4151383062150703  0.6539397686218755  0.356618214512995  1.0000
  C   C61       1.0  0.4434029136688191  0.2511438424779738  0.7709460293540327  1.0000
  C   C62       1.0  0.5565970868791216  0.7488561572288202  0.2290539708306622  1.0000
  C   C63       1.0  0.6299321022905398  0.11957989436002514  0.8350909215705119  1.0000
  C   C64       1.0  0.3700678972493064  0.8804201053518184  0.16490907861304496  1.0000
  C   C65       1.0  0.2762765369528797  0.2762736459078046  0.6777207138621002  1.0000
  C   C66       1.0  0.7237234633421255  0.7237263545032272  0.3222792863233824  1.0000
  C   C67       1.0  0.8071867603620311  0.9783141696135988  0.899263823515252  1.0000
  C   C68       1.0  0.19281324020793442  0.021685830242182257  0.10073617615822553  1.0000
  C   C69       1.0  0.8240651931556887  0.09248068402294063  0.5124386883849035  1.0000
  C   C70       1.0  0.17593480638415754  0.907519315688903  0.4875613117986533  1.0000
  C   C71       1.0  0.5237141658274999  0.6956137942386711  0.9137266280879305  1.0000
  C   C72       1.0  0.47628583472044106  0.3043862054681229  0.08627337209676415  1.0000
  C   C73       1.0  0.2494122376909755  0.7821075227786005  0.8488998394146  1.0000
  C   C74       1.0  0.7505877618488705  0.21789247693324287  0.1511001607689569  1.0000
  C   C75       1.0  0.5082186181156025  0.7410844829169304  0.8389486682026623  1.0000
  C   C76       1.0  0.49178138142424377  0.2589155167949131  0.16105133198089455  1.0000
  C   C77       1.0  0.5978312694091564  0.599668655424584  0.9321173606552681  1.0000
  C   C78       1.0  0.4021687311387842  0.40033134428221  0.06788263952942687  1.0000
  C   C79       1.0  0.475202300591031  0.7482204484081462  0.9651387802163266  1.0000
  C   C80       1.0  0.5247976999569097  0.2517795512986478  0.03486121996836821  1.0000
  C   C81       1.0  0.19172813779219053  0.8022702669575879  0.9114653290087272  1.0000
  C   C82       1.0  0.8082718627557502  0.1977297327492062  0.0885346711759675  1.0000
  C   C83       1.0  0.6292528335755699  0.555101667537164  0.00018932153124766643  1.0000
  C   C84       1.0  0.3707471669723708  0.44489833216963004  0.9998106786534473  1.0000
  C   C85       1.0  0.24786657216239422  0.8595780598943755  0.9520704846514209  1.0000
  C   C86       1.0  0.7521334271245163  0.14042194052170606  0.04792951553292362  1.0000
  C   C87       1.0  0.5787301765991999  0.6081827296960417  0.050859095721044544  1.0000
  C   C88       1.0  0.42126982394874085  0.39181727001075234  0.9491409044636502  1.0000
  C   C89       1.0  0.19348735288717755  0.7299972182105208  0.8124385124161024  1.0000
  C   C90       1.0  0.8065126464217577  0.2700027823545478  0.1875614872570249  1.0000
  C   C91       1.0  0.501563023391956  0.7031625324823105  0.033553405741671226  1.0000
  C   C92       1.0  0.49843697715598473  0.2968374672244835  0.9664465944430235  1.0000
  C   C93       1.0  0.44620307553697924  0.9140587715642177  0.9766919857301308  1.0000
  C   C94       1.0  0.5537969250109616  0.08594122814257628  0.02330801445456388  1.0000
  C   C95       1.0  0.07269574387591432  0.7695366845080678  0.9353917894675767  1.0000
  C   C96       1.0  0.9273042564411155  0.2304633160519514  0.0646082102066886  1.0000
  C   C97       1.0  0.07389086790606941  0.6999859992108303  0.8370367782337195  1.0000
  C   C98       1.0  0.9261091326418714  0.3000140004959637  0.1629632219509754  1.0000
  C   C99       1.0  0.7174678537979714  0.45430730369786343  0.017592175708487656  1.0000
  C   C100      1.0  0.2825321464970337  0.5456926967131684  0.9824078244769949  1.0000
  C   C101      1.0  0.010713624498536101  0.7203005189838891  0.8987145561092263  1.0000
  C   C102      1.0  0.989286375063335  0.2796994808769414  0.10128544356311311  1.0000
  C   C103      1.0  0.8802640595686583  0.6892235498402062  0.9243097364003776  1.0000
  C   C104      1.0  0.11973593997118799  0.3107764498716374  0.0756902637831792  1.0000
  N   N1        1.0  0.0037497320916303604  0.6010972668744883  0.5954327915559691  1.0000
  N   N2        1.0  0.9962502682253996  0.3989027336855308  0.4045672081182962  1.0000
  N   N3        1.0  0.6379915084697994  0.7068018180696279  0.5891067137733712  1.0000
  N   N4        1.0  0.36200849107004696  0.2931981816422155  0.4108932864101856  1.0000
  N   N5        1.0  0.6633806460357474  0.3418572730655174  0.7078113500220525  1.0000
  N   N6        1.0  0.33661935428128253  0.6581427274945019  0.2921886496522128  1.0000
  N   N7        1.0  0.40528409702703466  0.21187306911709475  0.712001390985814  1.0000
  N   N8        1.0  0.5947159032679703  0.7881269312939373  0.2879986091996686  1.0000
  N   N9        1.0  0.39921930402313793  0.8468296299965027  0.9453694863791767  1.0000
  N   N10       1.0  0.6007806955387331  0.15317036986432786  0.054630513293162736  1.0000
  N   N11       1.0  0.37354706258224796  0.8140509635546868  0.8203228746589308  1.0000
  N   N12       1.0  0.626452937712757  0.18594903685634526  0.17967712552655177  1.0000
  O   O1        1.0  0.30062120850830515  0.45724127316208374  0.7338313749935542  1.0000
  O   O2        1.0  0.6993787920396358  0.5427587265447102  0.2661686251911407  1.0000
  Cl  Cl1       1.0  0.08841145033855491  0.27533840864285797  0.8504807897971605  1.0000
  Cl  Cl2       1.0  0.9115885502093859  0.724661591063936  0.14951921038753427  1.0000
  Cl  Cl3       1.0  0.8428817734624469  0.43655782114313996  0.8266186672443063  1.0000
  Cl  Cl4       1.0  0.1571182270854941  0.5634421785636541  0.1733813329403885  1.0000
  Cl  Cl5       1.0  0.08575359918274604  0.45444888029869035  0.891383805415241  1.0000
  Cl  Cl6       1.0  0.9142464013651947  0.5455511194081036  0.10861619476945372  1.0000
  Br  Br1       1.0  0.9425165805192933  0.39934029439289737  0.652565248966971  1.0000
  Br  Br2       1.0  0.057483418789642006  0.6006597061721711  0.34743475070615626  1.0000
  Br  Br3       1.0  0.4029341477326895  0.846432956167491  0.6576804516023765  1.0000
  Br  Br4       1.0  0.5970658525623157  0.1535670442435408  0.34231954858310604  1.0000
  Br  Br5       1.0  0.2957543953943164  0.5437522152522571  0.5289582880801882  1.0000
  Br  Br6       1.0  0.7042456049006888  0.4562477851587748  0.47104171210529444  1.0000
  Br  Br7       1.0  0.4239774615889366  0.5208179654649218  0.7521007444568373  1.0000
  Br  Br8       1.0  0.5760225379729343  0.47918203439590884  0.24789925521550227  1.0000
  Br  Br9       1.0  0.2836906390397786  0.04739596907488459  0.8079449759890205  1.0000
  Br  Br10      1.0  0.7163093605220926  0.952604030785946  0.19205502368331898  1.0000
