data_image0
_chemical_formula_structural       H64C60N8O12S4
_chemical_formula_sum              "H64 C60 N8 O12 S4"
_cell_length_a       8.181025423454273
_cell_length_b       9.38100579937843
_cell_length_c       18.13388101498157
_cell_angle_alpha    90.0
_cell_angle_beta     98.86710166431162
_cell_angle_gamma    90.0

_space_group_name_H-M_alt    "P 1"
_space_group_IT_number       1

loop_
  _space_group_symop_operation_xyz
  'x, y, z'

loop_
  _atom_site_type_symbol
  _atom_site_label
  _atom_site_symmetry_multiplicity
  _atom_site_fract_x
  _atom_site_fract_y
  _atom_site_fract_z
  _atom_site_occupancy
  H   H1        1.0  0.9301155896077204  0.13774001398502653  0.54553392445641  1.0000
  H   H2        1.0  0.43011559010105016  0.8622599860812319  0.04553392435766904  1.0000
  H   H3        1.0  0.9723897611004904  0.9577648572176896  0.563427371890339  1.0000
  H   H4        1.0  0.47238976035671065  0.04223514284856877  0.06342737170844301  1.0000
  H   H5        1.0  0.7239030259906121  0.014337909268632158  0.6087199383157458  1.0000
  H   H6        1.0  0.22390302649039098  0.9856620907976262  0.10871993876889968  1.0000
  H   H7        1.0  0.49011236906501365  0.9694933298732858  0.6771962407990315  1.0000
  H   H8        1.0  0.9901123686192046  0.03050667019297249  0.1771962405861703  1.0000
  H   H9        1.0  0.8073130571278255  0.059401382103070666  0.8844333021594637  1.0000
  H   H10       1.0  0.3073130576211552  0.9405986179631877  0.38443330206072274  1.0000
  H   H11       1.0  0.04031790689782954  0.10877156691104584  0.8158137391812662  1.0000
  H   H12       1.0  0.5403179076955793  0.8912284320892288  0.31581373960345493  1.0000
  H   H13       1.0  0.39291122430003383  0.049538353342750474  0.8165948183985973  1.0000
  H   H14       1.0  0.8929112238542248  0.9504616467235079  0.3165948181857361  1.0000
  H   H15       1.0  0.5419950673003455  0.9809662990091892  0.8892763252388536  1.0000
  H   H16       1.0  0.04199506780012445  0.019033701057069037  0.38927632569200765  1.0000
  H   H17       1.0  0.3518497966524341  0.8190884713565705  0.7551109946855719  1.0000
  H   H18       1.0  0.8518497962130743  0.18091152870968794  0.2551109950246056  1.0000
  H   H19       1.0  0.5257128097412718  0.7448446146854502  0.8135268381425425  1.0000
  H   H20       1.0  0.025712808997492054  0.25515538431482443  0.31352683796064645  1.0000
  H   H21       1.0  0.3687013100765212  0.7581915843684127  0.9212144785077413  1.0000
  H   H22       1.0  0.8687013108678215  0.24180841569784564  0.42121447837803516  1.0000
  H   H23       1.0  0.09299697211795566  0.7964795651757371  0.7982190344684605  1.0000
  H   H24       1.0  0.5929969716721467  0.20352043489052124  0.2982190342555993  1.0000
  H   H25       1.0  0.1263604131051027  0.6858773619377062  0.10346079105534774  1.0000
  H   H26       1.0  0.6263604126053237  0.3141226381285522  0.6034607906021938  1.0000
  H   H27       1.0  0.820060935309159  0.6911157703824868  0.07827885564060051  1.0000
  H   H28       1.0  0.3200609357485187  0.30888422968377155  0.5782788553015666  1.0000
  H   H29       1.0  0.6707862542319571  0.7221183937919372  0.9491750326069563  1.0000
  H   H30       1.0  0.17078625472528688  0.2778816062743211  0.4491750325082154  1.0000
  H   H31       1.0  0.8322632029387512  0.7573600743825094  0.8440244353130281  1.0000
  H   H32       1.0  0.3322632021949716  0.24263992568374892  0.344024435131132  1.0000
  H   H33       1.0  0.0653000802001558  0.4155854013285351  0.6113067294711286  1.0000
  H   H34       1.0  0.5653000797607961  0.5844145987377233  0.11130672981016235  1.0000
  H   H35       1.0  0.9215534711070992  0.4706656348397686  0.5428394176747585  1.0000
  H   H36       1.0  0.42155347036976887  0.5293343652264897  0.042839418044757493  1.0000
  H   H37       1.0  0.9816679256401256  0.43727817440127786  0.7553411172841863  1.0000
  H   H38       1.0  0.48166792613990456  0.5627218256649805  0.25534111773734025  1.0000
  H   H39       1.0  0.7546396994599213  0.3307806749469874  0.8119910364173002  1.0000
  H   H40       1.0  0.25463969872259096  0.669219325119271  0.31199103678729917  1.0000
  H   H41       1.0  0.40030825846771917  0.589882556129179  0.6710096718648403  1.0000
  H   H42       1.0  0.9003082580219103  0.41011744393707944  0.17100967165197922  1.0000
  H   H43       1.0  0.6293725775325766  0.6977026333821977  0.6135233334407801  1.0000
  H   H44       1.0  0.1293725767887969  0.30229736668406054  0.11352333325888404  1.0000
  H   H45       1.0  0.30382147942004983  0.4229766183774143  0.7526794180481257  1.0000
  H   H46       1.0  0.8038214789742409  0.5770233816888442  0.2526794178352646  1.0000
  H   H47       1.0  0.42172739030851586  0.26551787124628345  0.7637503283485718  1.0000
  H   H48       1.0  0.9217273898627069  0.734482128819975  0.2637503281357107  1.0000
  H   H49       1.0  0.5705944724340034  0.36120179567786986  0.8878145045843084  1.0000
  H   H50       1.0  0.07059447169022375  0.6387982043883885  0.3878145044024125  1.0000
  H   H51       1.0  0.4337023150610971  0.5092741431112375  0.8773090980081479  1.0000
  H   H52       1.0  0.9337023158588468  0.4907258569550208  0.3773090984303367  1.0000
  H   H53       1.0  0.1747425408909317  0.48431931363916636  0.9035725141528752  1.0000
  H   H54       1.0  0.6747425416886814  0.5156806853611082  0.40357251457506405  1.0000
  H   H55       1.0  0.013538738260905549  0.9644917542423328  0.021597543135272058  1.0000
  H   H56       1.0  0.5135387377675757  0.0355082458239255  0.521597543234013  1.0000
  H   H57       1.0  0.7706682236702433  0.09168675922330095  0.05540110987583301  1.0000
  H   H58       1.0  0.270668222878943  0.9083132408429574  0.5554011100055392  1.0000
  H   H59       1.0  0.7197125998025091  0.34739520257155476  0.019355280210968384  1.0000
  H   H60       1.0  0.21971260024831799  0.6526047974947036  0.5193552804238295  1.0000
  H   H61       1.0  0.9172613444890719  0.4723806268506537  0.950236595933345  1.0000
  H   H62       1.0  0.41726134374529217  0.5276193732156047  0.4502365957514489  1.0000
  H   H63       1.0  0.30529382354160206  0.15143320773707725  0.9265353756594386  1.0000
  H   H64       1.0  0.805293823095793  0.8485667923291812  0.4265353754465773  1.0000
  C   C1        1.0  0.8955011420147196  0.06491591872167372  0.7078730195209799  1.0000
  C   C2        1.0  0.39550114250804924  0.9350840813445846  0.2078730194222389  1.0000
  C   C3        1.0  0.7414568917220689  0.02597795004200372  0.6690184663219458  1.0000
  C   C4        1.0  0.24145689221539862  0.9740220500242546  0.1690184662232049  1.0000
  C   C5        1.0  0.6105194554936907  0.9989350524248592  0.7079555479223217  1.0000
  C   C6        1.0  0.1105194559870203  0.0010649476413991707  0.2079555478235807  1.0000
  C   C7        1.0  0.6327987171750643  0.009064131482109732  0.7859516338837145  1.0000
  C   C8        1.0  0.13279871766839402  0.9909358685841487  0.28595163378497346  1.0000
  C   C9        1.0  0.7882511618248792  0.05028869292792229  0.8238322542256693  1.0000
  C   C10       1.0  0.28825116108754884  0.9497113071383362  0.3238322545956683  1.0000
  C   C11       1.0  0.9198001463258352  0.07822076072574431  0.7855351618945553  1.0000
  C   C12       1.0  0.41980014681916494  0.9217792393405141  0.28553516179581423  1.0000
  C   C13       1.0  0.49529283758149356  0.9731662771815888  0.8292399421318735  1.0000
  C   C14       1.0  0.995292837142134  0.026833722884669682  0.3292399424709072  1.0000
  C   C15       1.0  0.4246085177834225  0.8228174840816578  0.8110726850184959  1.0000
  C   C16       1.0  0.9246085185811722  0.17718251598460066  0.3110726854406847  1.0000
  C   C17       1.0  0.15818822576013467  0.7751117593895728  0.854338971133862  1.0000
  C   C18       1.0  0.6581882253207749  0.2248882406766856  0.3543389714728959  1.0000
  C   C19       1.0  0.06973102986450831  0.7435862357597297  0.9141682903685634  1.0000
  C   C20       1.0  0.5697310294186995  0.25641376430652874  0.4141682901557024  1.0000
  C   C21       1.0  0.15768585875363114  0.7195127979184521  0.9887528926585798  1.0000
  C   C22       1.0  0.6576858595513808  0.2804872021478062  0.4887528930807686  1.0000
  C   C23       1.0  0.06138513987670378  0.7015092475943291  0.04695993223840019  1.0000
  C   C24       1.0  0.5613851406204834  0.2984907524719293  0.5469599324202962  1.0000
  C   C25       1.0  0.8903543313573964  0.7042397096095746  0.0323595140461832  1.0000
  C   C26       1.0  0.3903543318032053  0.29576029045668384  0.5323595142590443  1.0000
  C   C27       1.0  0.8054230804521705  0.7230519013696194  0.9591436512594886  1.0000
  C   C28       1.0  0.3054230809455001  0.27694809869663894  0.4591436511607475  1.0000
  C   C29       1.0  0.8945495722791855  0.7420559861993945  0.901093085178661  1.0000
  C   C30       1.0  0.3945495727725153  0.25794401386686383  0.40109308507992003  1.0000
  C   C31       1.0  0.817910951421102  0.5733046802248378  0.6809386433441555  1.0000
  C   C32       1.0  0.31791095191443175  0.4266953187754367  0.18093864324541453  1.0000
  C   C33       1.0  0.8544980012325811  0.4713770596211542  0.737470302903172  1.0000
  C   C34       1.0  0.3544980017259107  0.528622940445104  0.237470302804431  1.0000
  C   C35       1.0  0.7260742552176808  0.4117235563649172  0.7689265504076822  1.0000
  C   C36       1.0  0.22607425571745976  0.5882764437013411  0.2689265508608363  1.0000
  C   C37       1.0  0.5609794963924719  0.4515667446107623  0.7448410804430071  1.0000
  C   C38       1.0  0.06097949564869225  0.5484332543895122  0.2448410802611111  1.0000
  C   C39       1.0  0.5277157921040103  0.556462892320766  0.6895052424151069  1.0000
  C   C40       1.0  0.027715791360230745  0.44353710667950863  0.18950524223321097  1.0000
  C   C41       1.0  0.655428340187039  0.6174369725241808  0.6571250100537073  1.0000
  C   C42       1.0  0.15542833944325934  0.3825630264760938  0.15712500987181116  1.0000
  C   C43       1.0  0.42420688536177076  0.3797575703701245  0.7776952027913654  1.0000
  C   C44       1.0  0.9242068849159618  0.6202424296961339  0.2776952025785042  1.0000
  C   C45       1.0  0.4458105299774532  0.39572294585362794  0.8629372523083807  1.0000
  C   C46       1.0  0.9458105295316442  0.6042770542126304  0.36293725209551964  1.0000
  C   C47       1.0  0.19762643678749997  0.3695108098355165  0.9130119713378989  1.0000
  C   C48       1.0  0.6976264375788004  0.6304891902307419  0.4130119712081928  1.0000
  C   C49       1.0  0.07867482100234734  0.2918826337556923  0.9486167499816905  1.0000
  C   C50       1.0  0.5786748217936477  0.708117366310566  0.44861674985198446  1.0000
  C   C51       1.0  0.10655314716265044  0.14656488754021454  0.9691326729508254  1.0000
  C   C52       1.0  0.6065531479539509  0.8534351125260439  0.46913267282111937  1.0000
  C   C53       1.0  0.9935504529267495  0.0763414654372617  0.007236370856711243  1.0000
  C   C54       1.0  0.4935504533661091  0.9236585346289966  0.5072363705176774  1.0000
  C   C55       1.0  0.856016775553116  0.14831977612594494  0.02520117046888034  1.0000
  C   C56       1.0  0.3560167747553662  0.8516802239403134  0.5252011700466914  1.0000
  C   C57       1.0  0.8264187333681571  0.2911334049256168  0.004526877216827495  1.0000
  C   C58       1.0  0.32641873257040743  0.7088665940746578  0.5045268767946387  1.0000
  C   C59       1.0  0.9374036342602035  0.361156431672229  0.9663523670340326  1.0000
  C   C60       1.0  0.4374036347599825  0.6388435683940293  0.4663523674871866  1.0000
  N   N1        1.0  0.010111481687366601  0.061523849610906484  0.5728438288933565  1.0000
  N   N2        1.0  0.510111481248007  0.9384761504553519  0.0728438292323903  1.0000
  N   N3        1.0  0.32012783784458565  0.7799205017531036  0.8649287255503143  1.0000
  N   N4        1.0  0.8201278386358859  0.22007949831315474  0.36492872542060817  1.0000
  N   N5        1.0  0.022278623494710253  0.5037945089334817  0.5801551732501619  1.0000
  N   N6        1.0  0.5222786230489014  0.49620549113277673  0.08015517303730066  1.0000
  N   N7        1.0  0.3275625017266919  0.30891168729391577  0.8949102442796014  1.0000
  N   N8        1.0  0.8275625025179921  0.6910883127723425  0.39491024414989534  1.0000
  O   O1        1.0  0.10508634299671514  0.2480205566181573  0.6662933301313153  1.0000
  O   O2        1.0  0.6050863437944647  0.751979443448101  0.16629333055350418  1.0000
  O   O3        1.0  0.19540586033237223  0.9976811964683071  0.6904646535004558  1.0000
  O   O4        1.0  0.6954058611236725  0.002318803597951224  0.19046465337074972  1.0000
  O   O5        1.0  0.31938369179552895  0.7145923447189607  0.0018691015143575533  1.0000
  O   O6        1.0  0.81938369129575  0.28540765534729773  0.5018691010612036  1.0000
  O   O7        1.0  0.12749833216674916  0.6484492750663321  0.6908209807444257  1.0000
  O   O8        1.0  0.6274983317209403  0.3515507249999263  0.19082098053156457  1.0000
  O   O9        1.0  0.9217895373504529  0.7527919181616872  0.5878813305168472  1.0000
  O   O10       1.0  0.4217895378437826  0.24720808190457114  0.08788133041810622  1.0000
  O   O11       1.0  0.23976432695328118  0.07643760971211758  0.9520172943597315  1.0000
  O   O12       1.0  0.7397643265074721  0.9235623903541408  0.4520172941468704  1.0000
  S   S1        1.0  0.066511533930661  0.09660469350312592  0.6603035749005614  1.0000
  S   S2        1.0  0.5665115334848521  0.9033953065631325  0.16030357468770018  1.0000
  S   S3        1.0  0.9813630306013013  0.633211480414348  0.6349991559579099  1.0000
  S   S4        1.0  0.4813630310946309  0.36678851965191034  0.134999155859169  1.0000
