data_image0
_chemical_formula_structural       H20C20N2O4
_chemical_formula_sum              "H20 C20 N2 O4"
_cell_length_a       5.452646628386041
_cell_length_b       6.431763442779337
_cell_length_c       12.27426566355106
_cell_angle_alpha    101.27291310808077
_cell_angle_beta     96.54195052237525
_cell_angle_gamma    106.03501571716961

_space_group_name_H-M_alt    "P 1"
_space_group_IT_number       1

loop_
  _space_group_symop_operation_xyz
  'x, y, z'

loop_
  _atom_site_type_symbol
  _atom_site_label
  _atom_site_symmetry_multiplicity
  _atom_site_fract_x
  _atom_site_fract_y
  _atom_site_fract_z
  _atom_site_occupancy
  H   H1        1.0  0.9742734601587756  0.01357834033015898  0.1662519211520983  1.0000
  H   H2        1.0  0.02572654074245051  0.9864216597963255  0.8337480784551625  1.0000
  H   H3        1.0  0.08952805018558233  0.7125029106852527  0.9659779109815997  1.0000
  H   H4        1.0  0.9104719488686838  0.2874970894344845  0.03402208934683221  1.0000
  H   H5        1.0  0.8459617601441008  0.6298744362382469  0.04489658498230856  1.0000
  H   H6        1.0  0.15403823891073834  0.3701255638871268  0.955103414532022  1.0000
  H   H7        1.0  0.3901372604950431  0.1305902571890482  0.01991420061242701  1.0000
  H   H8        1.0  0.6098627385597961  0.8694097429363254  0.9800857989019036  1.0000
  H   H9        1.0  0.3386038845073402  0.3143268261055043  0.136509597111927  1.0000
  H   H10       1.0  0.6613961145469258  0.6856731740142329  0.863490403216505  1.0000
  H   H11       1.0  0.5378112682941  0.0018409940381733485  0.3299637637679176  1.0000
  H   H12       1.0  0.462188732606553  0.9981590060826745  0.6700362366534446  1.0000
  H   H13       1.0  0.653885038010888  0.6513260544562229  0.2456759180279458  1.0000
  H   H14       1.0  0.3461149610439511  0.3486739456691507  0.7543240814863847  1.0000
  H   H15       1.0  0.8760554063752193  0.35972399824216644  0.2141001088711275  1.0000
  H   H16       1.0  0.1239445945260069  0.6402760018843181  0.7858998907361333  1.0000
  H   H17       1.0  0.2612115580036971  0.3811352839002058  0.350202231990009  1.0000
  H   H18       1.0  0.7387884423040737  0.6188647145551983  0.6497977682279911  1.0000
  H   H19       1.0  0.4207738225044528  0.6878804036323036  0.524554401616695  1.0000
  H   H20       1.0  0.5792261765503863  0.31211959649307  0.4754455978976355  1.0000
  C   C1        1.0  0.10557583882218366  0.9667979923875468  0.11083391294259097  1.0000
  C   C2        1.0  0.8944241602326556  0.033202007737826826  0.8891660865717396  1.0000
  C   C3        1.0  0.9513566715523614  0.7702583781847925  0.012973244566462426  1.0000
  C   C4        1.0  0.048643329348291554  0.2297416219360553  0.9870267558548997  1.0000
  C   C5        1.0  0.2404085842822728  0.1694125285068044  0.0660689727517588  1.0000
  C   C6        1.0  0.75959141661838  0.8305874716140433  0.9339310276696033  1.0000
  C   C7        1.0  0.31068166817355825  0.9080087619417697  0.18139730173944424  1.0000
  C   C8        1.0  0.6893183327270945  0.09199123817907802  0.8186026986819179  1.0000
  C   C9        1.0  0.8187306801338468  0.6544342685972031  0.3060306275501192  1.0000
  C   C10       1.0  0.18126931892041928  0.34556573152253406  0.6939693727783127  1.0000
  C   C11       1.0  0.9448507176035459  0.4964543844801255  0.2891865274650675  1.0000
  C   C12       1.0  0.05514928145129328  0.5035456156452481  0.710813472049263  1.0000
  C   C13       1.0  0.16485620098089776  0.5087299869540471  0.3674466268274043  1.0000
  C   C14       1.0  0.8351437999203283  0.4912700131724373  0.6325533727798565  1.0000
  C   C15       1.0  0.25427249862205653  0.6777955642337045  0.46339232076491166  1.0000
  C   C16       1.0  0.7457275022785964  0.32220443588714337  0.5366076796564505  1.0000
  C   C17       1.0  0.9075216848771928  0.8333822639218511  0.40394166168119416  1.0000
  C   C18       1.0  0.09247831602403322  0.16661773620463338  0.5960583379260666  1.0000
  C   C19       1.0  0.8723637895046745  0.15591780121297283  0.5150054617100601  1.0000
  C   C20       1.0  0.1276362113959784  0.844082198907875  0.48499453871130205  1.0000
  N   N1        1.0  0.7858856887036157  0.9902142027364976  0.42066710090626286  1.0000
  N   N2        1.0  0.2141143103512234  0.009785797388876088  0.5793328986080676  1.0000
  O   O1        1.0  0.40547679391574476  0.7609595596509982  0.14548948353553104  1.0000
  O   O2        1.0  0.5945232051390945  0.2390404404743755  0.8545105159787995  1.0000
  O   O3        1.0  0.38863771215104176  0.03923770447500247  0.2863529293603716  1.0000
  O   O4        1.0  0.6113622887496111  0.9607622956458454  0.7136470710609906  1.0000
