data_image0
_chemical_formula_structural       H8C18N2F4I2
_chemical_formula_sum              "H8 C18 N2 F4 I2"
_cell_length_a       5.696398920500172
_cell_length_b       6.7221257801968735
_cell_length_c       11.563544507886736
_cell_angle_alpha    75.31222988588797
_cell_angle_beta     78.28040012941969
_cell_angle_gamma    79.6511005942079

_space_group_name_H-M_alt    "P 1"
_space_group_IT_number       1

loop_
  _space_group_symop_operation_xyz
  'x, y, z'

loop_
  _atom_site_type_symbol
  _atom_site_label
  _atom_site_symmetry_multiplicity
  _atom_site_fract_x
  _atom_site_fract_y
  _atom_site_fract_z
  _atom_site_occupancy
  H   H1        1.0  0.4376672712814867  0.31006711098448875  0.4748873411426364  1.0000
  H   H2        1.0  0.5623327300739821  0.6899328880707016  0.5251126583522552  1.0000
  H   H3        1.0  0.27815504493407306  0.49518583945066263  0.6424529640066325  1.0000
  H   H4        1.0  0.7218449564213955  0.5048141596045276  0.3575470354882591  1.0000
  H   H5        1.0  0.8814541835413121  0.43465127640893175  0.7724809183558233  1.0000
  H   H6        1.0  0.11854581574854721  0.5653487241697384  0.2275190811284126  1.0000
  H   H7        1.0  0.6467094911801881  0.17999060027723482  0.7422639112416315  1.0000
  H   H8        1.0  0.3532905084186637  0.8200093987856558  0.2577360882520747  1.0000
  C   C1        1.0  0.13354603650172825  0.14015426997675182  0.5125386012277889  1.0000
  C   C2        1.0  0.8664539630971235  0.8598457290861389  0.48746139826591706  1.0000
  C   C3        1.0  0.2652453197512102  0.285065207159371  0.5333677643459039  1.0000
  C   C4        1.0  0.7347546792334692  0.7149347930853492  0.4666322360447977  1.0000
  C   C5        1.0  0.17589266914657292  0.38604232283350576  0.6256393952432165  1.0000
  C   C6        1.0  0.8241073301470992  0.6139576758954348  0.3743606051569552  1.0000
  C   C7        1.0  0.9502093696302153  0.3501735484322391  0.70100943472834  1.0000
  C   C8        1.0  0.049790631420073686  0.6498264502890013  0.2989905656730172  1.0000
  C   C9        1.0  0.8183352332002873  0.21067572700426554  0.6845666921084061  1.0000
  C   C10       1.0  0.1816647663985643  0.7893242720586253  0.31543330738529984  1.0000
  C   C11       1.0  0.9060391228914296  0.09999977616298793  0.5913580526939068  1.0000
  C   C12       1.0  0.09396087639842941  0.9000002244156821  0.40864194679032917  1.0000
  C   C13       1.0  0.8360368012936945  0.3801061864938901  0.08772782432926185  1.0000
  C   C14       1.0  0.16396319944760154  0.61989381374313  0.9122721760626253  1.0000
  C   C15       1.0  0.778169893903721  0.5941196993928346  0.046678782051504115  1.0000
  C   C16       1.0  0.22183010569513073  0.4058802996700562  0.9533212174422019  1.0000
  C   C17       1.0  0.9388378024379668  0.7125930399959989  0.9610977042468415  1.0000
  C   C18       1.0  0.06116219716088493  0.28740695906689173  0.038902295246864595  1.0000
  N   N1        1.0  0.22207415736079983  0.040074169576896204  0.4224126078981735  1.0000
  N   N2        1.0  0.777925843689489  0.9599258291443444  0.5775873925031837  1.0000
  F   F1        1.0  0.5612380332344472  0.6923717978038222  0.09007894445197875  1.0000
  F   F2        1.0  0.4387619675068491  0.3076282024331978  0.9099210559399084  1.0000
  F   F3        1.0  0.8715513697567651  0.9190266474605441  0.9258520066369724  1.0000
  F   F4        1.0  0.128448629533094  0.08097335311812609  0.07414799284726352  1.0000
  I   I1        1.0  0.594552862589464  0.21080158859980838  0.22412620407827025  1.0000
  I   I2        1.0  0.405447136704208  0.7891984101291324  0.7758737963219015  1.0000
