data_image0
_chemical_formula_structural       H32C72N8F16I8
_chemical_formula_sum              "H32 C72 N8 F16 I8"
_cell_length_a       14.866320088125194
_cell_length_b       4.305377516706896
_cell_length_c       26.61964682684628
_cell_angle_alpha    90.0
_cell_angle_beta     97.47704974508768
_cell_angle_gamma    90.0

_space_group_name_H-M_alt    "P 1"
_space_group_IT_number       1

loop_
  _space_group_symop_operation_xyz
  'x, y, z'

loop_
  _atom_site_type_symbol
  _atom_site_label
  _atom_site_symmetry_multiplicity
  _atom_site_fract_x
  _atom_site_fract_y
  _atom_site_fract_z
  _atom_site_occupancy
  H   H1        1.0  0.2373005969161944  0.772093552098675  0.37883592545893807  1.0000
  H   H2        1.0  0.26269940334296893  0.772093552098675  0.6211640746220499  1.0000
  H   H3        1.0  0.7373005970498328  0.2720935517162343  0.878835925233867  1.0000
  H   H4        1.0  0.7626994033904257  0.2720935517162343  0.1211640745426  1.0000
  H   H5        1.0  0.7626994035159507  0.22790644866620655  0.6211640748486591  1.0000
  H   H6        1.0  0.737300597006742  0.22790644866620655  0.3788359253066776  1.0000
  H   H7        1.0  0.2626994032998782  0.7279064490486474  0.12116407469486051  1.0000
  H   H8        1.0  0.23730059695928518  0.7279064490486474  0.8788359253861275  1.0000
  H   H9        1.0  0.10705455984047595  0.12835682303248808  0.3848987337840863  1.0000
  H   H10       1.0  0.39294544041868745  0.12835682303248808  0.6151012662969018  1.0000
  H   H11       1.0  0.6070545593007111  0.6283568234149289  0.8848987335557225  1.0000
  H   H12       1.0  0.8929454404661443  0.6283568234149289  0.11510126621745186  1.0000
  H   H13       1.0  0.8929454405092351  0.8716431777323935  0.6151012661446413  1.0000
  H   H14       1.0  0.6070545592576203  0.8716431777323935  0.38489873362853294  1.0000
  H   H15       1.0  0.3929454403755966  0.3716431773499527  0.11510126636971235  1.0000
  H   H16       1.0  0.10705455921016349  0.3716431773499527  0.884898733707983  1.0000
  H   H17       1.0  0.02385604693792694  0.3648050615550529  0.3078584940272499  1.0000
  H   H18       1.0  0.47614395332123644  0.3648050615550529  0.6921415060537381  1.0000
  H   H19       1.0  0.5238560464805961  0.8648050619374937  0.8078584941777556  1.0000
  H   H20       1.0  0.9761439533686933  0.8648050619374937  0.19214150597428822  1.0000
  H   H21       1.0  0.976143953411784  0.635194936887152  0.6921415059014777  1.0000
  H   H22       1.0  0.5238560463550713  0.635194936887152  0.3078584938716966  1.0000
  H   H23       1.0  0.4761439532781457  0.1351949365047112  0.19214150612654873  1.0000
  H   H24       1.0  0.023856046307614485  0.1351949365047112  0.8078584939511466  1.0000
  H   H25       1.0  0.06935364636144752  0.25527097582853403  0.2228206818441017  1.0000
  H   H26       1.0  0.4306463538977159  0.25527097582853403  0.7771793182368862  1.0000
  H   H27       1.0  0.5693536465775202  0.7552709738882982  0.7228206819979004  1.0000
  H   H28       1.0  0.9306463539451728  0.7552709738882982  0.2771793181574364  1.0000
  H   H29       1.0  0.9306463533148602  0.7447290249363476  0.777179318081333  1.0000
  H   H30       1.0  0.5693536464519952  0.7447290249363476  0.2228206816918412  1.0000
  H   H31       1.0  0.43064635385462513  0.24472902455390674  0.27717931830969694  1.0000
  H   H32       1.0  0.0693536464045383  0.24472902455390674  0.7228206817712911  1.0000
  C   C1        1.0  0.46035390542523114  0.14488389637829432  0.4544441729036379  1.0000
  C   C2        1.0  0.039646094833932215  0.14488389637829432  0.5455558271773501  1.0000
  C   C3        1.0  0.9603539056413036  0.6448838967607351  0.9544441730574366  1.0000
  C   C4        1.0  0.539646094881389  0.6448838967607351  0.045555827097900195  1.0000
  C   C5        1.0  0.5396460949244798  0.8551161043865874  0.5455558270250895  1.0000
  C   C6        1.0  0.9603539055982129  0.8551161043865874  0.4544441731302471  1.0000
  C   C7        1.0  0.039646094708407235  0.3551161040041465  0.045555826871291005  1.0000
  C   C8        1.0  0.46035390546832194  0.3551161040041465  0.9544441728308273  1.0000
  C   C9        1.0  0.40893201188520567  0.9591468329956279  0.4829862783551602  1.0000
  C   C10       1.0  0.09106798770055446  0.9591468329956279  0.517013721722535  1.0000
  C   C11       1.0  0.9089320120188441  0.45914683261318706  0.9829862781300892  1.0000
  C   C12       1.0  0.5910679877480113  0.45914683261318706  0.01701372164308506  1.0000
  C   C13       1.0  0.591067987791102  0.04085316776925377  0.5170137215702745  1.0000
  C   C14       1.0  0.9089320119757532  0.04085316776925377  0.48298627820289974  1.0000
  C   C15       1.0  0.09106798765746367  0.5408531681516946  0.01701372179534556  1.0000
  C   C16       1.0  0.4089320119282965  0.5408531681516946  0.9829862782823497  1.0000
  C   C17       1.0  0.4480278711116043  0.8157324314468692  0.5275061467136324  1.0000
  C   C18       1.0  0.05197212914755911  0.8157324314468692  0.47249385336735555  1.0000
  C   C19       1.0  0.9480278711590611  0.3157324310644284  0.027506146634182545  1.0000
  C   C20       1.0  0.5519721286902284  0.3157324310644284  0.9724938535178614  1.0000
  C   C21       1.0  0.5519721286471376  0.1842675693180124  0.472493853590672  1.0000
  C   C22       1.0  0.9480278712021519  0.1842675693180124  0.527506146561372  1.0000
  C   C23       1.0  0.05197212919064992  0.6842675697004532  0.9724938532945451  1.0000
  C   C24       1.0  0.4480278709860793  0.6842675697004532  0.027506146407573345  1.0000
  C   C25       1.0  0.3218065537133659  0.5563034230345415  0.2480294985867613  1.0000
  C   C26       1.0  0.17819344654579747  0.5563034230345415  0.7519705014942268  1.0000
  C   C27       1.0  0.8218065532560354  0.05630342265210068  0.7480294987372672  1.0000
  C   C28       1.0  0.6781934465932542  0.05630342265210068  0.25197050141477684  1.0000
  C   C29       1.0  0.6781934466363451  0.44369657773034016  0.7519705013419663  1.0000
  C   C30       1.0  0.8218065531305103  0.44369657773034016  0.248029498431208  1.0000
  C   C31       1.0  0.17819344650270663  0.9436965781127808  0.2519705015670373  1.0000
  C   C32       1.0  0.3218065537564567  0.9436965781127808  0.7480294985139507  1.0000
  C   C33       1.0  0.22764838814867086  0.8079470026732182  0.2972074430265916  1.0000
  C   C34       1.0  0.2723516114370893  0.8079470026732182  0.7027925570511037  1.0000
  C   C35       1.0  0.7276483883647434  0.3079470022907774  0.7972074431803902  1.0000
  C   C36       1.0  0.7723516114845461  0.3079470022907774  0.20279255697165374  1.0000
  C   C37       1.0  0.7723516115276369  0.1920529980916634  0.7027925568988432  1.0000
  C   C38       1.0  0.7276483883216526  0.1920529980916634  0.29720744325320075  1.0000
  C   C39       1.0  0.27235161198496755  0.6920529961514276  0.20279255674833735  1.0000
  C   C40       1.0  0.2276483881917617  0.6920529961514276  0.7972074429537811  1.0000
  C   C41       1.0  0.19986416728873646  0.8771281229917497  0.34518673852197584  1.0000
  C   C42       1.0  0.3001358329704269  0.8771281229917497  0.6548132615590123  1.0000
  C   C43       1.0  0.6998641675048091  0.3771281226093089  0.8451867386757744  1.0000
  C   C44       1.0  0.8001358330178837  0.3771281226093089  0.1548132614795623  1.0000
  C   C45       1.0  0.8001358323875712  0.12287187777313192  0.6548132614034587  1.0000
  C   C46       1.0  0.699864167379284  0.12287187777313192  0.34518673836971536  1.0000
  C   C47       1.0  0.30013583292733614  0.6228718781555728  0.1548132616318228  1.0000
  C   C48       1.0  0.1998641673318273  0.6228718781555728  0.8451867384491653  1.0000
  C   C49       1.0  0.12773084177084004  0.07194373287778912  0.3482587684720288  1.0000
  C   C50       1.0  0.37226915781492004  0.07194373287778912  0.6517412316056664  1.0000
  C   C51       1.0  0.6277308419869128  0.57194373326023  0.8482587686258274  1.0000
  C   C52       1.0  0.872269157862377  0.57194373326023  0.1517412315262165  1.0000
  C   C53       1.0  0.8722691579054677  0.9280562655644158  0.6517412314534059  1.0000
  C   C54       1.0  0.6277308419438218  0.9280562655644158  0.34825876869863803  1.0000
  C   C55       1.0  0.3722691576893951  0.4280562675046517  0.15174123129960732  1.0000
  C   C56       1.0  0.12773084181393085  0.4280562675046517  0.8482587683992182  1.0000
  C   C57       1.0  0.07996840484587538  0.20790119252646636  0.3039609442714131  1.0000
  C   C58       1.0  0.42003159541328794  0.20790119252646636  0.6960390558095748  1.0000
  C   C59       1.0  0.5799684043061105  0.7079011929089072  0.8039609440430493  1.0000
  C   C60       1.0  0.9200315954607448  0.7079011929089072  0.19603905573012492  1.0000
  C   C61       1.0  0.9200315955038356  0.7920988059157386  0.6960390556573144  1.0000
  C   C62       1.0  0.579968404936423  0.7920988059157386  0.3039609441191527  1.0000
  C   C63       1.0  0.4200315953701972  0.2920988078559744  0.19603905588238543  1.0000
  C   C64       1.0  0.07996840488896619  0.2920988078559744  0.8039609441986025  1.0000
  C   C65       1.0  0.10440521832037902  0.1472273168938818  0.25696746069412674  1.0000
  C   C66       1.0  0.3955947819387844  0.1472273168938818  0.7430325393868612  1.0000
  C   C67       1.0  0.6044052184540174  0.6472273172763225  0.7569674604690555  1.0000
  C   C68       1.0  0.8955947819862412  0.6472273172763225  0.2430325393074114  1.0000
  C   C69       1.0  0.8955947821117661  0.8527726815483231  0.7430325396134705  1.0000
  C   C70       1.0  0.6044052184109265  0.8527726815483231  0.2569674605418662  1.0000
  C   C71       1.0  0.3955947818956936  0.35277268116588234  0.2430325394596719  1.0000
  C   C72       1.0  0.10440521836346979  0.35277268116588234  0.756967460621316  1.0000
  N   N1        1.0  0.2987482338488745  0.6180020589774309  0.2942437576547913  1.0000
  N   N2        1.0  0.20125176641028886  0.6180020589774309  0.7057562424261966  1.0000
  N   N3        1.0  0.7987482340649471  0.11800205859499008  0.7942437578085899  1.0000
  N   N4        1.0  0.7012517664577458  0.11800205859499008  0.20575624234674678  1.0000
  N   N5        1.0  0.7012517665008365  0.3819979417874507  0.7057562422739362  1.0000
  N   N6        1.0  0.7987482339394221  0.3819979417874507  0.29424375750253084  1.0000
  N   N7        1.0  0.2012517663671981  0.8819979421698916  0.20575624249900726  1.0000
  N   N8        1.0  0.2987482338919653  0.8819979421698916  0.7942437575819807  1.0000
  F   F1        1.0  0.3195484393660726  0.9140160960867261  0.46769452349476787  1.0000
  F   F2        1.0  0.18045156089309075  0.9140160960867261  0.5323054765862201  1.0000
  F   F3        1.0  0.8195484395821453  0.4140160957042852  0.9676945236485665  1.0000
  F   F4        1.0  0.6804515609405476  0.4140160957042852  0.032305476506770195  1.0000
  F   F5        1.0  0.6804515609836383  0.0859839046781556  0.5323054764339595  1.0000
  F   F6        1.0  0.8195484395390544  0.0859839046781556  0.4676945237213771  1.0000
  F   F7        1.0  0.1804515607675658  0.5859839027379198  0.032305476280161  1.0000
  F   F8        1.0  0.3195484394091634  0.5859839027379198  0.9676945234219573  1.0000
  F   F9        1.0  0.39496316150513233  0.6332139747144031  0.5530483743253294  1.0000
  F   F10       1.0  0.105036838754031  0.6332139747144031  0.4469516257556586  1.0000
  F   F11       1.0  0.8949631615525891  0.1332139743319623  0.05304837424587948  1.0000
  F   F12       1.0  0.6050368382142661  0.1332139743319623  0.9469516255272946  1.0000
  F   F13       1.0  0.6050368388445787  0.36678602372780184  0.44695162560339813  1.0000
  F   F14       1.0  0.8949631616781142  0.36678602372780184  0.5530483745519387  1.0000
  F   F15       1.0  0.10503683879712179  0.8667860241102426  0.946951625682848  1.0000
  F   F16       1.0  0.3949631614620416  0.8667860241102426  0.05304837439813998  1.0000
  I   I1        1.0  0.3996888600778716  0.34957280381562905  0.3865452706731103  1.0000
  I   I2        1.0  0.1003111401812918  0.34957280381562905  0.6134547294078778  1.0000
  I   I3        1.0  0.8996888595381067  0.8495728018753932  0.8865452704447464  1.0000
  I   I4        1.0  0.6003111402287485  0.8495728018753932  0.11345472932842787  1.0000
  I   I5        1.0  0.6003111403542737  0.6504271969492526  0.6134547296344871  1.0000
  I   I6        1.0  0.899688859495016  0.6504271969492526  0.386545270517557  1.0000
  I   I7        1.0  0.100311140138201  0.15042719656681172  0.11345472948068837  1.0000
  I   I8        1.0  0.3996888601209624  0.15042719656681172  0.8865452706002996  1.0000
