data_image0
_chemical_formula_structural       H66B2C36N4O12F8
_chemical_formula_sum              "H66 B2 C36 N4 O12 F8"
_cell_length_a       9.226393737028843
_cell_length_b       10.669376623600012
_cell_length_c       11.499125340734109
_cell_angle_alpha    98.67120169503048
_cell_angle_beta     91.62591405204775
_cell_angle_gamma    101.87313915766033

_space_group_name_H-M_alt    "P 1"
_space_group_IT_number       1

loop_
  _space_group_symop_operation_xyz
  'x, y, z'

loop_
  _atom_site_type_symbol
  _atom_site_label
  _atom_site_symmetry_multiplicity
  _atom_site_fract_x
  _atom_site_fract_y
  _atom_site_fract_z
  _atom_site_occupancy
  H   H1        1.0  0.7343118650732382  0.5189057105203213  0.27123268013570706  1.0000
  H   H2        1.0  0.2656881350716601  0.4810942897184033  0.7287673200433505  1.0000
  H   H3        1.0  0.7108111502747578  0.35576164627071755  0.1977077122487671  1.0000
  H   H4        1.0  0.2891888495690133  0.6442383528668338  0.802292287036113  1.0000
  H   H5        1.0  0.8153758241616467  0.4406952385810149  0.01727451534814074  1.0000
  H   H6        1.0  0.18462417482838459  0.559304761517963  0.9827254839552387  1.0000
  H   H7        1.0  0.6422808542699909  0.47854261002608706  0.056802046042279675  1.0000
  H   H8        1.0  0.3577191458749074  0.5214573902126375  0.9431979541367779  1.0000
  H   H9        1.0  0.7016886432474435  0.6603127048666935  0.9489547122809151  1.0000
  H   H10       1.0  0.2983113568974548  0.33968729537203124  0.05104528789814231  1.0000
  H   H11       1.0  0.8801381559564725  0.626159953266758  0.9190526901429195  1.0000
  H   H12       1.0  0.11986184418842588  0.3738400469719666  0.08094731003613816  1.0000
  H   H13       1.0  0.8650767574200565  0.8647343115807824  0.9274256023837547  1.0000
  H   H14       1.0  0.1349232427248419  0.13526568865794214  0.07257439779530273  1.0000
  H   H15       1.0  0.8223948803066117  0.8666091330720573  0.07854487375282641  1.0000
  H   H16       1.0  0.17760511983828667  0.13339086716666734  0.9214551264262311  1.0000
  H   H17       1.0  0.11221454956028286  0.915348924633921  0.893917341658417  1.0000
  H   H18       1.0  0.8877854505846156  0.08465107560480359  0.10608265852064057  1.0000
  H   H19       1.0  0.11270465999242334  0.7496935998950778  0.9033165912332713  1.0000
  H   H20       1.0  0.8872953400808806  0.25030640020240347  0.09668340806454988  1.0000
  H   H21       1.0  0.3654935960132663  0.9005783568217872  0.9309829637534025  1.0000
  H   H22       1.0  0.6345064041316321  0.09942164341693736  0.06901703642565499  1.0000
  H   H23       1.0  0.3073114018587744  0.9832572366012733  0.06410899123487229  1.0000
  H   H24       1.0  0.692688598286124  0.016742763637451318  0.9358910089441852  1.0000
  H   H25       1.0  0.4880065783073961  0.9123321246065906  0.18575038513516975  1.0000
  H   H26       1.0  0.5119934218375023  0.08766787563213398  0.8142496150438878  1.0000
  H   H27       1.0  0.5512973023313507  0.8412568174965369  0.05016105103315815  1.0000
  H   H28       1.0  0.4487026978135477  0.1587431827421877  0.9498389491458994  1.0000
  H   H29       1.0  0.4769520306655054  0.6219422471556035  0.10734983262351928  1.0000
  H   H30       1.0  0.5230479692498601  0.3780577521231913  0.8926501675425971  1.0000
  H   H31       1.0  0.6168985924359435  0.7291466325084701  0.20641518224901845  1.0000
  H   H32       1.0  0.3831014066256822  0.2708533677317513  0.7935848179355974  1.0000
  H   H33       1.0  0.5406359548568661  0.5951887999906246  0.35239893297446273  1.0000
  H   H34       1.0  0.4593640450584993  0.4048111992881702  0.6476010671916537  1.0000
  H   H35       1.0  0.39403245192355735  0.49358077243363524  0.25734689920207937  1.0000
  H   H36       1.0  0.6059675481497467  0.506419227663846  0.7426531000957417  1.0000
  H   H37       1.0  0.3577973803627151  0.5034862065243036  0.4775671334373274  1.0000
  H   H38       1.0  0.6422026195526503  0.49651379275449126  0.522432866728789  1.0000
  H   H39       1.0  0.35446900656896535  0.6708115896342041  0.4861526428473572  1.0000
  H   H40       1.0  0.6455309935043385  0.32918841046327707  0.513847356450464  1.0000
  H   H41       1.0  0.12040016276027386  0.3611775674301221  0.4393450536575546  1.0000
  H   H42       1.0  0.8795998373846245  0.6388224328086025  0.560654946521503  1.0000
  H   H43       1.0  0.1668192655431808  0.369334807791622  0.2904405324703621  1.0000
  H   H44       1.0  0.8331807346017177  0.6306651924471028  0.7095594677086956  1.0000
  H   H45       1.0  0.8943746612031971  0.2949667855792053  0.31236660825737  1.0000
  H   H46       1.0  0.1056253389417013  0.7050332146595193  0.6876333919216875  1.0000
  H   H47       1.0  0.8941301145474806  0.44385872419826133  0.40687274871756957  1.0000
  H   H48       1.0  0.10586988559741774  0.5561412760404633  0.5931272514614879  1.0000
  H   H49       1.0  0.20088457445260594  0.9256104500707376  0.3036962808558054  1.0000
  H   H50       1.0  0.7991154256922924  0.074389550167987  0.6963037193232521  1.0000
  H   H51       1.0  0.1798092865104232  0.8231955687226028  0.4143647604242361  1.0000
  H   H52       1.0  0.820190713634475  0.1768044315161217  0.5856352397548216  1.0000
  H   H53       1.0  0.019837544496259747  0.0542954371116804  0.2870108570379167  1.0000
  H   H54       1.0  0.9801624556486387  0.9457045631270443  0.7129891431411408  1.0000
  H   H55       1.0  0.7644262237822126  0.09640163362193994  0.3304011300547197  1.0000
  H   H56       1.0  0.23557377636268576  0.9035983666167847  0.6695988701243379  1.0000
  H   H57       1.0  0.5965542376410056  0.9426220081269636  0.4365922407712703  1.0000
  H   H58       1.0  0.4034457625038928  0.05737799211176099  0.5634077594077872  1.0000
  H   H59       1.0  0.6866227794025637  0.7544238740107491  0.49533466813859833  1.0000
  H   H60       1.0  0.3133772207423348  0.24557612622797553  0.5046653320404593  1.0000
  H   H61       1.0  0.07525570422428608  0.7500262700317469  0.1630897914591824  1.0000
  H   H62       1.0  0.9247442959206122  0.24997373020697766  0.8369102087198752  1.0000
  H   H63       1.0  0.21404921509758315  0.7041298653712867  0.23560189125933265  1.0000
  H   H64       1.0  0.7859507850473152  0.29587013486743785  0.7643981089197249  1.0000
  H   H65       1.0  0.0368425420193015  0.6487031635834843  0.26343128977174896  1.0000
  H   H66       1.0  0.9631574581255969  0.3512968366552402  0.7365687104073085  1.0000
  B   B1        1.0  0.5751706768293297  0.7949800802709468  0.7350078786996941  1.0000
  B   B2        1.0  0.424829322232296  0.2050199199692745  0.26499212148492185  1.0000
  C   C1        1.0  0.7771285179752125  0.4549453600808219  0.20209693275264393  1.0000
  C   C2        1.0  0.22287148216968589  0.5450546401579027  0.7979030674264136  1.0000
  C   C3        1.0  0.7616433623027282  0.4976811461436039  0.08451060459729777  1.0000
  C   C4        1.0  0.23835663754104294  0.5023188529939475  0.9154893946875823  1.0000
  C   C5        1.0  0.8179535270505833  0.6776874243634499  0.9843066578178171  1.0000
  C   C6        1.0  0.18204647178150937  0.3223125749168416  0.015693342353857564  1.0000
  C   C7        1.0  0.8809003932133721  0.8219793777162079  0.007001843889163935  1.0000
  C   C8        1.0  0.11909960685993189  0.1780206223812734  0.9929981554086573  1.0000
  C   C9        1.0  0.13306857912015743  0.848640807817528  0.9539524635496381  1.0000
  C   C10       1.0  0.8669314210247409  0.1513591924211966  0.046047536629419364  1.0000
  C   C11       1.0  0.29132196570130114  0.8896496261587361  0.0042079540342422495  1.0000
  C   C12       1.0  0.7086780342140643  0.1103503731200588  0.995792046131874  1.0000
  C   C13       1.0  0.47199072645617796  0.823955634187289  0.11898731248193344  1.0000
  C   C14       1.0  0.528009273617126  0.17604436591019215  0.8810126868158877  1.0000
  C   C15       1.0  0.499720981552634  0.7109471233793757  0.1737991962197949  1.0000
  C   C16       1.0  0.5002790185922643  0.28905287685934894  0.8262008039592628  1.0000
  C   C17       1.0  0.4231693294285588  0.5832294246337003  0.3224362829462284  1.0000
  C   C18       1.0  0.5768306707163396  0.4167705756050245  0.6775637172328292  1.0000
  C   C19       1.0  0.3293236655804722  0.5765594103886182  0.4279007155310978  1.0000
  C   C20       1.0  0.6706763334811534  0.42344058985160304  0.572099284653518  1.0000
  C   C21       1.0  0.11027262051898332  0.4131262327325455  0.3642649570258622  1.0000
  C   C22       1.0  0.8897273796259151  0.586873767506179  0.6357350431531953  1.0000
  C   C23       1.0  0.9479943881229969  0.3991087717081542  0.3320722827453785  1.0000
  C   C24       1.0  0.05200561179236866  0.6008912275706407  0.667927717420738  1.0000
  C   C25       1.0  0.12699028649063615  0.8455029937271397  0.3356685655911295  1.0000
  C   C26       1.0  0.8730097133531348  0.15449700541041167  0.6643314336937506  1.0000
  C   C27       1.0  0.9790360393517326  0.8780841349913278  0.3624212743649657  1.0000
  C   C28       1.0  0.020963960563632856  0.12191586428746724  0.6375787258011507  1.0000
  C   C29       1.0  0.9403814468327388  0.9886958780012159  0.33017244442653976  1.0000
  C   C30       1.0  0.05961855331215963  0.01130412223750873  0.6698275557525177  1.0000
  C   C31       1.0  0.8006991094100542  0.012798337625987992  0.355704866331083  1.0000
  C   C32       1.0  0.19930089073484417  0.9872016626127366  0.6442951338479744  1.0000
  C   C33       1.0  0.70638834274159  0.9273738640379912  0.41476013692373936  1.0000
  C   C34       1.0  0.2936116562484412  0.07262613606098685  0.5852398623796402  1.0000
  C   C35       1.0  0.7555475625955006  0.8206151188050674  0.4453916760002016  1.0000
  C   C36       1.0  0.24445243754939788  0.17938488143365733  0.5546083241788561  1.0000
  N   N1        1.0  0.8880360804339966  0.7946683388966629  0.41866713016825463  1.0000
  N   N2        1.0  0.11196391971090186  0.2053316613420618  0.5813328700108028  1.0000
  N   N3        1.0  0.11047658041562713  0.7285991725596163  0.2429881295539688  1.0000
  N   N4        1.0  0.8895234196576769  0.2714008275378651  0.7570118697438524  1.0000
  O   O1        1.0  0.9307483891876038  0.4594740663960234  0.23061722455320516  1.0000
  O   O2        1.0  0.06925161072776151  0.5405259328827713  0.7693827756129111  1.0000
  O   O3        1.0  0.8258880565416952  0.6322848115427885  0.09447688725208903  1.0000
  O   O4        1.0  0.1741119436032032  0.3677151886959361  0.9055231129269686  1.0000
  O   O5        1.0  0.03468429176668811  0.8538916993282205  0.04827019607439108  1.0000
  O   O6        1.0  0.9653157083782103  0.14610830091050422  0.9517298041046665  1.0000
  O   O7        1.0  0.32364436447967543  0.7918257479744986  0.06696250932159704  1.0000
  O   O8        1.0  0.67635563543569  0.20817425130429618  0.9330374908445193  1.0000
  O   O9        1.0  0.4048351115848805  0.6928819574435763  0.26913958962150025  1.0000
  O   O10       1.0  0.595164888330485  0.3071180418352186  0.7308604105446161  1.0000
  O   O11       1.0  0.1735262197740605  0.5488223034388671  0.39685416357226166  1.0000
  O   O12       1.0  0.8264737803708379  0.4511776967998576  0.6031458366067959  1.0000
  F   F1        1.0  0.5601807750336754  0.6874708639897327  0.6436798054195996  1.0000
  F   F2        1.0  0.43981922488169006  0.31252913528906223  0.35632019474651677  1.0000
  F   F3        1.0  0.7229957555699131  0.8690646626023479  0.7447413128642422  1.0000
  F   F4        1.0  0.27700424450339084  0.13093533749513325  0.2552586864335791  1.0000
  F   F5        1.0  0.4749632907783232  0.8731485250756591  0.7094823874339375  1.0000
  F   F6        1.0  0.5250367091370424  0.12685147420313567  0.2905176127321788  1.0000
  F   F7        1.0  0.5422055319667496  0.7495748423938785  0.8433664732429559  1.0000
  F   F8        1.0  0.45779446817814873  0.25042515784484615  0.1566335269361016  1.0000
