data_image0
_chemical_formula_structural       H64C80N16O4Br4
_chemical_formula_sum              "H64 C80 N16 O4 Br4"
_cell_length_a       7.378187757911214
_cell_length_b       19.652721253661824
_cell_length_c       12.432340092793222
_cell_angle_alpha    90.0
_cell_angle_beta     107.01329816821332
_cell_angle_gamma    90.0

_space_group_name_H-M_alt    "P 1"
_space_group_IT_number       1

loop_
  _space_group_symop_operation_xyz
  'x, y, z'

loop_
  _atom_site_type_symbol
  _atom_site_label
  _atom_site_symmetry_multiplicity
  _atom_site_fract_x
  _atom_site_fract_y
  _atom_site_fract_z
  _atom_site_occupancy
  H   H1        1.0  0.30416234757376653  0.3384904759060025  0.41140865933921206  1.0000
  H   H2        1.0  0.6958376532284019  0.8384904760672568  0.08859134098716868  1.0000
  H   H3        1.0  0.6958376530531886  0.661509523907671  0.5885913410563541  1.0000
  H   H4        1.0  0.3041623473985532  0.16150952425525197  0.9114086594083974  1.0000
  H   H5        1.0  0.2154269273004139  0.45780431136596933  0.3582505906418094  1.0000
  H   H6        1.0  0.7845730735017545  0.9578043110183884  0.14174940968457136  1.0000
  H   H7        1.0  0.7845730733265411  0.5421956889565396  0.6417494097537568  1.0000
  H   H8        1.0  0.21542692712520056  0.042195688795285125  0.8582505907109949  1.0000
  H   H9        1.0  0.8921660178151692  0.3923194691708862  0.026580295091600162  1.0000
  H   H10       1.0  0.10783398121674556  0.8923194688233053  0.4734197043937868  1.0000
  H   H11       1.0  0.10783398239679372  0.6076805311516227  0.9734197044628001  1.0000
  H   H12       1.0  0.8921660176399558  0.10768053099036821  0.5265802951607855  1.0000
  H   H13       1.0  0.982641521537105  0.27277682621184784  0.07964865416987789  1.0000
  H   H14       1.0  0.017358477909801714  0.7727768263731024  0.4203513461566748  1.0000
  H   H15       1.0  0.017358477734588297  0.7272231736018256  0.9203513462258602  1.0000
  H   H16       1.0  0.9826415209468997  0.22722317394940658  0.5796486533978975  1.0000
  H   H17       1.0  0.3836659887906511  0.1378140077927045  0.49295101253325263  1.0000
  H   H18       1.0  0.6163340120115173  0.6378140079539589  0.007048987793128168  1.0000
  H   H19       1.0  0.616334011836304  0.8621859925298044  0.5070489878623136  1.0000
  H   H20       1.0  0.38366598861543777  0.3621859923685499  0.992951012602438  1.0000
  H   H21       1.0  0.4922411829007111  0.2735335555119813  0.5722824264061075  1.0000
  H   H22       1.0  0.5077588171360387  0.7735335556732357  0.9277175732174783  1.0000
  H   H23       1.0  0.5077588173112519  0.7264664443016923  0.42771757314829284  1.0000
  H   H24       1.0  0.49224118172066283  0.22646644414043782  0.07228242633709406  1.0000
  H   H25       1.0  0.6842469597043236  0.35242749035121396  0.7230146742296589  1.0000
  H   H26       1.0  0.315753040332426  0.8524274905124685  0.7769853253939267  1.0000
  H   H27       1.0  0.31575304092263146  0.6475725094624595  0.27698532616590715  1.0000
  H   H28       1.0  0.684246959879537  0.14757250930120508  0.22301467416047357  1.0000
  H   H29       1.0  0.8689125353897845  0.308173583791686  0.9067763399077592  1.0000
  H   H30       1.0  0.13108746506195718  0.8081735839529405  0.5932236605569923  1.0000
  H   H31       1.0  0.13108746523717052  0.6918264160219875  0.09322366048780689  1.0000
  H   H32       1.0  0.868912535564998  0.19182641636956846  0.406776339838574  1.0000
  H   H33       1.0  0.8755584641981773  0.18426991169608312  0.9516530157497166  1.0000
  H   H34       1.0  0.12444153583857223  0.6842699113485021  0.548346983873869  1.0000
  H   H35       1.0  0.12444153601378566  0.8157300886264258  0.0483469838046837  1.0000
  H   H36       1.0  0.8755584630181291  0.3157300884651713  0.4516530156807032  1.0000
  H   H37       1.0  0.3836844379377115  0.9866251324552396  0.6939899322151418  1.0000
  H   H38       1.0  0.6163155611587686  0.4866251328028206  0.8060100682497816  1.0000
  H   H39       1.0  0.6163155613339819  0.013374867358433816  0.3060100681805962  1.0000
  H   H40       1.0  0.383684438112925  0.5133748675196883  0.19398993214595653  1.0000
  H   H41       1.0  0.5894849895543106  0.9694589275492834  0.6524690164435625  1.0000
  H   H42       1.0  0.41051500912717737  0.469458927388029  0.847530983180195  1.0000
  H   H43       1.0  0.4105150093023908  0.03054107277322544  0.34753098311100983  1.0000
  H   H44       1.0  0.589484989729524  0.5305410724256445  0.15246901637437715  1.0000
  H   H45       1.0  0.38353806832366055  0.005024748925373389  0.5546411111829282  1.0000
  H   H46       1.0  0.6164619307728196  0.5050247490866279  0.9453588892819954  1.0000
  H   H47       1.0  0.6164619309480329  0.9949752508883002  0.44535888921280997  1.0000
  H   H48       1.0  0.38353806849887395  0.49497525123588104  0.05464111111374284  1.0000
  H   H49       1.0  0.5742734190293797  0.9203752175862031  0.8641005032141241  1.0000
  H   H50       1.0  0.4257265814223619  0.42037521742494877  0.6358994972506274  1.0000
  H   H51       1.0  0.4257265815975753  0.0796247827363057  0.13589949718144206  1.0000
  H   H52       1.0  0.5742734192045932  0.5796247828975601  0.36410050314493875  1.0000
  H   H53       1.0  0.6463425508011817  0.11498617778334086  0.02878155163102089  1.0000
  H   H54       1.0  0.35365744864572524  0.6149861779445953  0.4712184486955319  1.0000
  H   H55       1.0  0.3536574484705117  0.8850138220303326  0.9712184487647172  1.0000
  H   H56       1.0  0.6463425519812299  0.3850138218690782  0.5287815517000343  1.0000
  H   H57       1.0  0.8785694280473318  0.06702609389295451  0.9236068988478554  1.0000
  H   H58       1.0  0.12143057104914814  0.567026094054209  0.576393101617068  1.0000
  H   H59       1.0  0.12143057122436154  0.9329739059207189  0.07639310154788265  1.0000
  H   H60       1.0  0.8785694282225454  0.43297390575946454  0.42360689877867014  1.0000
  H   H61       1.0  0.7976213210009775  0.9979168638717554  0.8308063477436657  1.0000
  H   H62       1.0  0.20237867903577222  0.49791686371050103  0.6691936518799201  1.0000
  H   H63       1.0  0.20237867785572405  0.0020831359419180655  0.1691936518109067  1.0000
  H   H64       1.0  0.7976213211761907  0.5020831361031726  0.3308063476744802  1.0000
  C   C1        1.0  0.15091281060534084  0.2972101148033975  0.249047633456618  1.0000
  C   C2        1.0  0.849087188426574  0.7972101144558166  0.25095236602876886  1.0000
  C   C3        1.0  0.8490871896066222  0.7027898855191114  0.7509523660977824  1.0000
  C   C4        1.0  0.1509128104301274  0.20278988535785697  0.7490476335258033  1.0000
  C   C5        1.0  0.21541275933634343  0.3501296508094464  0.3268463533427762  1.0000
  C   C6        1.0  0.784587241050833  0.8501296504618655  0.17315364614243872  1.0000
  C   C7        1.0  0.7845872408756195  0.6498703495130624  0.6731536462116241  1.0000
  C   C8        1.0  0.21541275916113017  0.14987034935180804  0.8268463534119617  1.0000
  C   C9        1.0  0.16545416805492005  0.4172188499581054  0.297296760164626  1.0000
  C   C10       1.0  0.8345458313919868  0.9172188501193599  0.20270324016192676  1.0000
  C   C11       1.0  0.8345458312167735  0.5827811498555682  0.7027032402311121  1.0000
  C   C12       1.0  0.16545416787970668  0.08278115020314909  0.7972967602338114  1.0000
  C   C13       1.0  0.049678887505015555  0.4317437565252716  0.18897816518194405  1.0000
  C   C14       1.0  0.9503211119418913  0.9317437566865261  0.3110218351446087  1.0000
  C   C15       1.0  0.9503211113516858  0.568256243288402  0.8110218343726282  1.0000
  C   C16       1.0  0.04967888732980224  0.06825624363598287  0.6889781652511294  1.0000
  C   C17       1.0  0.9838038993960755  0.38029773299753167  0.11024701829322665  1.0000
  C   C18       1.0  0.0161960996358394  0.8802977331587861  0.3897529811921603  1.0000
  C   C19       1.0  0.016196099460625925  0.6197022668161418  0.8897529812613455  1.0000
  C   C20       1.0  0.9838039005761235  0.11970226665488738  0.61024701836224  1.0000
  C   C21       1.0  0.03536226705655196  0.31325794278249913  0.14069277026491916  1.0000
  C   C22       1.0  0.9646377323903549  0.8132579424349182  0.35930723006163356  1.0000
  C   C23       1.0  0.964637733570403  0.6867420575400097  0.859307230130647  1.0000
  C   C24       1.0  0.03536226688133855  0.18674205737875532  0.6406927703341045  1.0000
  C   C25       1.0  0.19812527196012517  0.22603783937414212  0.28095980913865154  1.0000
  C   C26       1.0  0.8018747288420432  0.7260378395353966  0.21904019118772924  1.0000
  C   C27       1.0  0.8018747286668299  0.7739621604395314  0.7190401912569145  1.0000
  C   C28       1.0  0.19812527178491177  0.27396216078711233  0.7809598092078369  1.0000
  C   C29       1.0  0.14173883343107435  0.17473084341234252  0.19579792414638045  1.0000
  C   C30       1.0  0.8582611669561021  0.6747308430647616  0.30420207533883453  1.0000
  C   C31       1.0  0.8582611667808887  0.8252691569101664  0.8042020754080198  1.0000
  C   C32       1.0  0.14173883325586098  0.3252691567489119  0.6957979242155659  1.0000
  C   C33       1.0  0.5386859298506612  0.07519040447005099  0.676658002129467  1.0000
  C   C34       1.0  0.4613140706010804  0.5751904041224701  0.8233419983352843  1.0000
  C   C35       1.0  0.4613140707762937  0.9248095958524579  0.32334199826609894  1.0000
  C   C36       1.0  0.5386859300258747  0.42480959569120347  0.1766580020602818  1.0000
  C   C37       1.0  0.5769811628910847  0.18550710677386248  0.6795749487740078  1.0000
  C   C38       1.0  0.42301883756065695  0.6855071064262815  0.8204250516907438  1.0000
  C   C39       1.0  0.4230188377358703  0.8144928935486465  0.3204250516215583  1.0000
  C   C40       1.0  0.5769811630662982  0.314492893387392  0.1795749487048224  1.0000
  C   C41       1.0  0.5743730360104672  0.2550053300667568  0.6547444665833718  1.0000
  C   C42       1.0  0.4256269644412745  0.7550053302280113  0.8452555338813796  1.0000
  C   C43       1.0  0.4256269646164879  0.7449946697469166  0.3452555338121943  1.0000
  C   C44       1.0  0.5743730361856805  0.24499467009449763  0.15474446651418647  1.0000
  C   C45       1.0  0.6805214062039927  0.2980118770528398  0.7387847658787797  1.0000
  C   C46       1.0  0.31947859383275695  0.798011876705259  0.761215233744806  1.0000
  C   C47       1.0  0.3194785940079703  0.7019881232696691  0.2612152336756206  1.0000
  C   C48       1.0  0.6805214050239445  0.20198812310841457  0.2387847658097663  1.0000
  C   C49       1.0  0.7858294230855454  0.27278084244954753  0.8444437122192662  1.0000
  C   C50       1.0  0.2141705769512042  0.7727808426108019  0.6555562874043196  1.0000
  C   C51       1.0  0.2141705771264176  0.7272191573641259  0.15555628733513416  1.0000
  C   C52       1.0  0.7858294219054972  0.22721915771170692  0.3444437121502527  1.0000
  C   C53       1.0  0.790680026867073  0.20369315721374268  0.8704184288402911  1.0000
  C   C54       1.0  0.20931997358466867  0.7036931568661619  0.6295815716244604  1.0000
  C   C55       1.0  0.209319973759882  0.7963068431087662  0.129581571555275  1.0000
  C   C56       1.0  0.7906800270422865  0.29630684294751175  0.37041842877110576  1.0000
  C   C57       1.0  0.6851460207501473  0.16071951966506795  0.7859035606179159  1.0000
  C   C58       1.0  0.3148539792866023  0.6607195198263224  0.7140964390056698  1.0000
  C   C59       1.0  0.3148539781065541  0.8392804801486055  0.21409643893665634  1.0000
  C   C60       1.0  0.6851460209253608  0.3392804799873511  0.28590356054873056  1.0000
  C   C61       1.0  0.4713212460682841  0.005247976535604851  0.6424015185383171  1.0000
  C   C62       1.0  0.5286787543834575  0.5052479766968593  0.8575984819264344  1.0000
  C   C63       1.0  0.528678754558671  0.9947520232780687  0.3575984818572491  1.0000
  C   C64       1.0  0.4713212448882359  0.49475202311681427  0.14240151846930366  1.0000
  C   C65       1.0  0.6231063646768326  0.020162022087713186  0.9381606144349409  1.0000
  C   C66       1.0  0.376893635359917  0.5201620222489677  0.5618393851886448  1.0000
  C   C67       1.0  0.3768936355351304  0.9798379777259603  0.06183938511945944  1.0000
  C   C68       1.0  0.6231063648520461  0.4798379780735412  0.43816061436575554  1.0000
  C   C69       1.0  0.5402038061545105  0.9554181722544622  0.9231679364269179  1.0000
  C   C70       1.0  0.45979619388223936  0.4554181720932077  0.576832063196668  1.0000
  C   C71       1.0  0.45979619405745265  0.044581828068046774  0.07683206312748257  1.0000
  C   C72       1.0  0.5402038049744621  0.5445818277204659  0.42316793635790434  1.0000
  C   C73       1.0  0.5822105467014254  0.0645293628109494  0.016009629592984315  1.0000
  C   C74       1.0  0.4177894536857511  0.5645293629722038  0.48399036989223065  1.0000
  C   C75       1.0  0.4177894535105377  0.935470637002724  0.983990369961416  1.0000
  C   C76       1.0  0.582210546526212  0.43547063684146964  0.5160096296621697  1.0000
  C   C77       1.0  0.7511265498400516  0.04214464497356435  0.8696740734590037  1.0000
  C   C78       1.0  0.24887344884143653  0.5421446451348189  0.630325926164754  1.0000
  C   C79       1.0  0.24887344901664993  0.9578553548401093  0.13032592609556867  1.0000
  C   C80       1.0  0.7511265500152648  0.4578553546788547  0.36967407338981817  1.0000
  N   N1        1.0  0.2844446165465745  0.20990641686485836  0.3855525415183148  1.0000
  N   N2        1.0  0.7155553842555941  0.7099064170261128  0.114447458808066  1.0000
  N   N3        1.0  0.7155553840803806  0.7900935829488152  0.6144474588772514  1.0000
  N   N4        1.0  0.28444461637136104  0.2900935827875607  0.8855525415875002  1.0000
  N   N5        1.0  0.09362539552599163  0.13355774430021672  0.12528585166888315  1.0000
  N   N6        1.0  0.9063746039209153  0.6335577439526358  0.3747141486576696  1.0000
  N   N7        1.0  0.9063746051009633  0.8664422560222922  0.874714148726683  1.0000
  N   N8        1.0  0.09362539535077825  0.3664422558610378  0.6252858517380685  1.0000
  N   N9        1.0  0.6601811145394716  0.09064865760857728  0.7807592493446628  1.0000
  N   N10       1.0  0.3398188854972779  0.5906486577698318  0.7192407502789229  1.0000
  N   N11       1.0  0.33981888567249136  0.9093513422050963  0.21924075020973754  1.0000
  N   N12       1.0  0.660181114714685  0.40935134255267713  0.28075924927547746  1.0000
  N   N13       1.0  0.48805681241524174  0.13103182184096693  0.6142545410528357  1.0000
  N   N14       1.0  0.5119431876215079  0.631031821493386  0.88574545857075  1.0000
  N   N15       1.0  0.5119431877967212  0.868968178481542  0.38574545850156466  1.0000
  N   N16       1.0  0.4880568125904551  0.36896817832028755  0.11425454098365026  1.0000
  O   O1        1.0  0.3148108495254741  0.14258715899091437  0.40387181678967965  1.0000
  O   O2        1.0  0.6851891508617023  0.6425871586433334  0.09612818269553523  1.0000
  O   O3        1.0  0.6851891506864889  0.8574128413315946  0.5961281827647206  1.0000
  O   O4        1.0  0.31481084935026077  0.35741284117034006  0.9038718168588651  1.0000
  Br  Br1       1.0  0.9751384207410181  0.5234690034634847  0.15049045075251222  1.0000
  Br  Br2       1.0  0.02486158006115032  0.023469003302230253  0.34950954957386854  1.0000
  Br  Br3       1.0  0.02486157988593693  0.47653099635018886  0.8495095496430539  1.0000
  Br  Br4       1.0  0.9751384201508126  0.9765309965114433  0.6504904499805317  1.0000
