data_image0
_chemical_formula_structural       H36C64O4F8I4
_chemical_formula_sum              "H36 C64 O4 F8 I4"
_cell_length_a       7.352891527567972
_cell_length_b       9.485274644614906
_cell_length_c       19.188361701520577
_cell_angle_alpha    87.97208519330215
_cell_angle_beta     83.91976803159805
_cell_angle_gamma    75.5964000226878

_space_group_name_H-M_alt    "P 1"
_space_group_IT_number       1

loop_
  _space_group_symop_operation_xyz
  'x, y, z'

loop_
  _atom_site_type_symbol
  _atom_site_label
  _atom_site_symmetry_multiplicity
  _atom_site_fract_x
  _atom_site_fract_y
  _atom_site_fract_z
  _atom_site_occupancy
  H   H1        1.0  0.1309767495626279  0.9701005237131743  0.6840438721128365  1.0000
  H   H2        1.0  0.8690232509419948  0.02989947717095036  0.31595612805335044  1.0000
  H   H3        1.0  0.35522862099914104  0.7483915279563887  0.6414923817674505  1.0000
  H   H4        1.0  0.6447713786714182  0.2516084718298044  0.35850761787335234  1.0000
  H   H5        1.0  0.5519137059426462  0.601329553715203  0.5446361238116474  1.0000
  H   H6        1.0  0.44808629320833393  0.3986704471519495  0.45536387635187486  1.0000
  H   H7        1.0  0.6735388779138386  0.5761393563334594  0.41842389498590776  1.0000
  H   H8        1.0  0.32646112160725616  0.4238606434453233  0.581576105179007  1.0000
  H   H9        1.0  0.5709725775000748  0.7803921293924853  0.33512027074310136  1.0000
  H   H10       1.0  0.42902742202102  0.21960787038629753  0.6648797294218134  1.0000
  H   H11       1.0  0.3773890588577778  0.023989736503257676  0.3104456299656186  1.0000
  H   H12       1.0  0.6226109421664241  0.9760102632999076  0.6895543696778487  1.0000
  H   H13       1.0  0.148957819068057  0.25110516897983404  0.35235615440356804  1.0000
  H   H14       1.0  0.8510421804530378  0.7488948307989487  0.6476438457613467  1.0000
  H   H15       1.0  0.9527582073398122  0.3984351656776373  0.4485029113688786  1.0000
  H   H16       1.0  0.047241792181282605  0.6015648341011454  0.5514970887960362  1.0000
  H   H17       1.0  0.827843889245006  0.42525437990114945  0.5718672792829641  1.0000
  H   H18       1.0  0.1721561117791959  0.5747456199020158  0.4281327203605032  1.0000
  H   H19       1.0  0.9412781178362157  0.1370085042345189  0.7121556414752307  1.0000
  H   H20       1.0  0.05872188266840692  0.8629914966496056  0.2878443586909563  1.0000
  H   H21       1.0  0.7251019190450132  0.44453312041459553  0.6741804929334708  1.0000
  H   H22       1.0  0.2748980804760818  0.555466879364187  0.32581950723144393  1.0000
  H   H23       1.0  0.5314427293113811  0.3827458217854327  0.9082803360447063  1.0000
  H   H24       1.0  0.4685572715633562  0.6172541780103221  0.09171966412287312  1.0000
  H   H25       1.0  0.3647655496611383  0.6092163130309849  0.9706210269277477  1.0000
  H   H26       1.0  0.6352344498599566  0.39078368674779773  0.029378973237167177  1.0000
  H   H27       1.0  0.4348318586160363  0.8559349333955284  0.780656388818491  1.0000
  H   H28       1.0  0.5651681424081656  0.1440650664076369  0.21934361082497636  1.0000
  H   H29       1.0  0.6057475298674014  0.6309286189690276  0.7194776042143181  1.0000
  H   H30       1.0  0.39425246980315776  0.3690713808171654  0.28052239542648477  1.0000
  H   H31       1.0  0.20302607849645266  0.9964632852931832  0.99754746682581  1.0000
  H   H32       1.0  0.7969739211741067  0.0035367144930098394  0.002452532814992778  1.0000
  H   H33       1.0  0.15375758084530375  0.8201629574581518  0.9998753325349087  1.0000
  H   H34       1.0  0.8462424183056764  0.17983704340900067  0.00012466762861379613  1.0000
  H   H35       1.0  0.38638671625240456  0.8374521834883092  0.012250515052846361  1.0000
  H   H36       1.0  0.6136132832686902  0.16254781629047346  0.9877494851120684  1.0000
  C   C1        1.0  0.05790265851159721  0.6322668951664843  0.782223140969994  1.0000
  C   C2        1.0  0.9420973425126047  0.36773310463668096  0.21777685867347343  1.0000
  C   C3        1.0  0.12862659827048745  0.4826247509610836  0.7884449776401226  1.0000
  C   C4        1.0  0.8713734008804924  0.517375249906069  0.21155502252339975  1.0000
  C   C5        1.0  0.08425285810071396  0.40801980560592  0.8492045629107889  1.0000
  C   C6        1.0  0.9157471415698456  0.591980194180273  0.15079543673001375  1.0000
  C   C7        1.0  0.9627686760480156  0.4887988137631183  0.9024166774359519  1.0000
  C   C8        1.0  0.03723132347307908  0.5112011860156643  0.09758332272896282  1.0000
  C   C9        1.0  0.8953491967905824  0.639207639213531  0.8965275398552984  1.0000
  C   C10       1.0  0.1046508037140401  0.3607923616705936  0.10347246031088869  1.0000
  C   C11       1.0  0.9416430040239425  0.7142625762326124  0.8361232764090061  1.0000
  C   C12       1.0  0.05835699685079501  0.2857374235631424  0.16387672375857326  1.0000
  C   C13       1.0  0.11710635539095891  0.08178308464831915  0.5823872978596855  1.0000
  C   C14       1.0  0.8828936441301359  0.9182169151304637  0.41761270230522934  1.0000
  C   C15       1.0  0.1827868206946123  0.9626734970621359  0.6286617545820361  1.0000
  C   C16       1.0  0.8172131788264825  0.03732650271664681  0.3713382455828787  1.0000
  C   C17       1.0  0.30875949570919586  0.8377723085235096  0.6050715783348032  1.0000
  C   C18       1.0  0.6912405038118989  0.1622276912552731  0.39492842183011156  1.0000
  C   C19       1.0  0.38036011820583115  0.8191929951111969  0.5330869572891683  1.0000
  C   C20       1.0  0.6196398826689062  0.18080700468455785  0.466913042878411  1.0000
  C   C21       1.0  0.3191784775875614  0.9359925080339778  0.485475973694857  1.0000
  C   C22       1.0  0.6808215219335334  0.0640074917448048  0.5145240264700578  1.0000
  C   C23       1.0  0.1884744375247437  0.0664770276453267  0.5099087169669978  1.0000
  C   C24       1.0  0.8115255619963511  0.9335229721334558  0.490091283197917  1.0000
  C   C25       1.0  0.5071482479190793  0.6904415576080026  0.5078631299695029  1.0000
  C   C26       1.0  0.4928517529556581  0.30955844218775225  0.4921368701980764  1.0000
  C   C27       1.0  0.5741516114226192  0.6761952591983009  0.4371202328242918  1.0000
  C   C28       1.0  0.42584838809847564  0.3238047405804817  0.562879767340623  1.0000
  C   C29       1.0  0.5171961543861691  0.7903869785969669  0.39028503651300456  1.0000
  C   C30       1.0  0.48280384663803283  0.20961302120619832  0.6097149631304628  1.0000
  C   C31       1.0  0.38928769825016396  0.9204906210579212  0.4131557110955305  1.0000
  C   C32       1.0  0.6107123026245734  0.0795093787378336  0.5868442890720489  1.0000
  C   C33       1.0  0.3257225145967742  0.03780113766906036  0.365819644182191  1.0000
  C   C34       1.0  0.674277485073785  0.9621988621171326  0.6341803554586118  1.0000
  C   C35       1.0  0.20009470951496902  0.16322408326060384  0.3889662685969607  1.0000
  C   C36       1.0  0.7999052913597684  0.836775916535151  0.6110337315706186  1.0000
  C   C37       1.0  0.12886807139317102  0.18164645566501209  0.46106002471448937  1.0000
  C   C38       1.0  0.8711319294815664  0.8183535441307429  0.5389399754530899  1.0000
  C   C39       1.0  0.9993098214882334  0.3103086165393999  0.4855584033281806  1.0000
  C   C40       1.0  0.0006901793865041268  0.6896913832563549  0.5144415968393987  1.0000
  C   C41       1.0  0.9300226167402498  0.32503689754994064  0.5552721245708045  1.0000
  C   C42       1.0  0.06997738428395209  0.6749631022532245  0.4447278750726628  1.0000
  C   C43       1.0  0.9836002939579551  0.21332938249368105  0.605120255529705  1.0000
  C   C44       1.0  0.01639970571260425  0.7866706172925121  0.3948797441110976  1.0000
  C   C45       1.0  0.9007221724910938  0.2295585184666044  0.6768311530269827  1.0000
  C   C46       1.0  0.09927782717946564  0.7704414813195887  0.32316884661381995  1.0000
  C   C47       1.0  0.7727433770612075  0.3473146139548691  0.7056314558642182  1.0000
  C   C48       1.0  0.22725662260935145  0.652685385831324  0.2943685437765846  1.0000
  C   C49       1.0  0.6948146150771659  0.34856726913393454  0.7787036759526451  1.0000
  C   C50       1.0  0.3051853845933934  0.6514327306522585  0.22129632368815766  1.0000
  C   C51       1.0  0.5837564560908343  0.4884507320045422  0.8100974052138883  1.0000
  C   C52       1.0  0.4162435430601458  0.5115492688626102  0.1899025949496341  1.0000
  C   C53       1.0  0.5108559954641713  0.4871827719664184  0.8808085814850762  1.0000
  C   C54       1.0  0.48914400420638804  0.5128172278197747  0.1191914181557265  1.0000
  C   C55       1.0  0.41731670139997284  0.614301045207267  0.915756388866958  1.0000
  C   C56       1.0  0.582683299624229  0.3856989545958982  0.0842436107765095  1.0000
  C   C57       1.0  0.3926968781934649  0.7479503400309536  0.8796421304353863  1.0000
  C   C58       1.0  0.6073031226812725  0.2520496597648013  0.12035786973219312  1.0000
  C   C59       1.0  0.4573040812573076  0.7514751701030655  0.8082002773402013  1.0000
  C   C60       1.0  0.5426959182637874  0.24852482967571726  0.19179972282471353  1.0000
  C   C61       1.0  0.5528112078240507  0.6235051974320607  0.774350983132406  1.0000
  C   C62       1.0  0.4471887930506868  0.37649480236369415  0.22564901703517337  1.0000
  C   C63       1.0  0.2604492441198872  0.8815060975267126  0.9846255958664932  1.0000
  C   C64       1.0  0.7395507554012076  0.11849390225207009  0.015374404298421445  1.0000
  O   O1        1.0  0.7210370163038535  0.23642107160208556  0.8169114571177553  1.0000
  O   O2        1.0  0.2789629832172414  0.7635789281766971  0.18308854304715946  1.0000
  O   O3        1.0  0.30961338541980205  0.8784360405552427  0.9100446565211288  1.0000
  O   O4        1.0  0.6903866141012928  0.12156395922353999  0.08995534364378598  1.0000
  F   F1        1.0  0.1059526563508229  0.6977483859570565  0.7215339970954631  1.0000
  F   F2        1.0  0.8940473431702719  0.30225161382172633  0.2784660030694516  1.0000
  F   F3        1.0  0.24286007263379955  0.41083339079307574  0.7341723252281085  1.0000
  F   F4        1.0  0.7571399283904022  0.5891666090100894  0.26582767441535887  1.0000
  F   F5        1.0  0.9079298221328732  0.4209768061273509  0.9613294829620554  1.0000
  F   F6        1.0  0.09207017738822158  0.5790231936514318  0.03867051720285923  1.0000
  F   F7        1.0  0.7830132804512484  0.7123006230372274  0.9509798678951129  1.0000
  F   F8        1.0  0.21698671921931084  0.2876993767489656  0.04902013174568969  1.0000
  I   I1        1.0  0.20028494936065863  0.1860224037828904  0.8605319431871898  1.0000
  I   I2        1.0  0.7997150501604364  0.8139775959958923  0.13946805697772474  1.0000
  I   I3        1.0  0.8435670680551622  0.9406899181531246  0.8262143718400604  1.0000
  I   I4        1.0  0.15643293124528249  0.05931008272143817  0.17378562779934992  1.0000
