data_image0
_chemical_formula_structural       H32B4C32O10F12I8
_chemical_formula_sum              "H32 B4 C32 O10 F12 I8"
_cell_length_a       9.144985536260828
_cell_length_b       11.216451698088441
_cell_length_c       12.716017672865533
_cell_angle_alpha    89.98469375097791
_cell_angle_beta     99.80659187030786
_cell_angle_gamma    114.87920140576222

_space_group_name_H-M_alt    "P 1"
_space_group_IT_number       1

loop_
  _space_group_symop_operation_xyz
  'x, y, z'

loop_
  _atom_site_type_symbol
  _atom_site_label
  _atom_site_symmetry_multiplicity
  _atom_site_fract_x
  _atom_site_fract_y
  _atom_site_fract_z
  _atom_site_occupancy
  H   H1        1.0  0.19784803776017268  0.6488161127594698  0.21336542202210873  1.0000
  H   H2        1.0  0.8021519620684501  0.3511838871343006  0.7866345777443381  1.0000
  H   H3        1.0  0.7527735851989028  0.19278409890653586  0.2107879587234919  1.0000
  H   H4        1.0  0.2472264146297198  0.8072159009872345  0.7892120410429551  1.0000
  H   H5        1.0  0.5718069446533549  0.19335675274001443  0.3010065907004728  1.0000
  H   H6        1.0  0.4281930551752679  0.806643247153756  0.6989934090659742  1.0000
  H   H7        1.0  0.599391746096894  0.24781072048113698  0.43889804337076926  1.0000
  H   H8        1.0  0.4006082537317286  0.7521892794126335  0.5611019563956776  1.0000
  H   H9        1.0  0.728402395284884  0.17828315756696275  0.3972055480265099  1.0000
  H   H10       1.0  0.27159760454373866  0.8217168423268078  0.6027944517399371  1.0000
  H   H11       1.0  0.1088030761598551  0.7901376607863008  0.28229897653714786  1.0000
  H   H12       1.0  0.8911969236687676  0.2098623391074698  0.717701023229299  1.0000
  H   H13       1.0  0.24308066277876766  0.7524095197656533  0.38203929882884535  1.0000
  H   H14       1.0  0.7569193381644523  0.24759048016074667  0.6179607009595683  1.0000
  H   H15       1.0  0.09823157453547855  0.805250708062037  0.42105396213105034  1.0000
  H   H16       1.0  0.9017684255030586  0.19474929193082166  0.578946038435536  1.0000
  H   H17       1.0  0.5194542645972154  0.42790304110370797  0.6606044397989823  1.0000
  H   H18       1.0  0.48054573523140726  0.5720969587900626  0.3393955599674647  1.0000
  H   H19       1.0  0.756270844353348  0.8823894607384014  0.8441461416028281  1.0000
  H   H20       1.0  0.24372915547527474  0.11761053915536905  0.1558538581636189  1.0000
  H   H21       1.0  0.5584626773915712  0.899112924239655  0.9267856814988831  1.0000
  H   H22       1.0  0.4415373224370515  0.10088707565411528  0.07321431826756396  1.0000
  H   H23       1.0  0.6978065754704601  0.8501473511901612  0.014889814761498116  1.0000
  H   H24       1.0  0.30219342547275985  0.1498526487362387  0.9851101850269156  1.0000
  H   H25       1.0  0.49597992091297743  0.8090170496190745  0.04099766079240273  1.0000
  H   H26       1.0  0.5040200789156454  0.19098295027469606  0.9590023389740442  1.0000
  H   H27       1.0  0.2617121430901056  0.3195748157609777  0.6891884636624528  1.0000
  H   H28       1.0  0.7382878567385173  0.680425184132793  0.3108115361039942  1.0000
  H   H29       1.0  0.20282733765621913  0.27396724168217484  0.8160946174304825  1.0000
  H   H30       1.0  0.7971726621724037  0.7260327582115955  0.18390538233596443  1.0000
  H   H31       1.0  0.40012529568509875  0.29151668065221253  0.7928808860220806  1.0000
  H   H32       1.0  0.5998747041435241  0.7084833192415579  0.20711911374436628  1.0000
  B   B1        1.0  0.5316562630432387  0.07892580242142336  0.7631876042024038  1.0000
  B   B2        1.0  0.46834373725389633  0.9210741984527109  0.23681239554673744  1.0000
  B   B3        1.0  0.3729469434419286  0.11043108844553673  0.587988159383434  1.0000
  B   B4        1.0  0.6270530565966086  0.8895689115473219  0.4120118411831524  1.0000
  C   C1        1.0  0.09803322526999579  0.5511651298304018  0.21280369527939694  1.0000
  C   C2        1.0  0.9019667747685414  0.4488348701624568  0.7871963052871893  1.0000
  C   C3        1.0  0.9493668619513628  0.32150389092003767  0.13589299142726569  1.0000
  C   C4        1.0  0.050633138087174595  0.678496109072821  0.8641070091393207  1.0000
  C   C5        1.0  0.0785966690331869  0.4504792380069307  0.13900533529920792  1.0000
  C   C6        1.0  0.9214033307954358  0.5495207618868396  0.8609946644672392  1.0000
  C   C7        1.0  0.9927657314428887  0.5249156589128569  0.28590168542500777  1.0000
  C   C8        1.0  0.007234269500331385  0.4750843410135432  0.7140983143634061  1.0000
  C   C9        1.0  0.869039916692062  0.3911778750730375  0.28796512741176145  1.0000
  C   C10       1.0  0.13096008313656066  0.608822124820733  0.7120348723546855  1.0000
  C   C11       1.0  0.8497273640197959  0.2920637940180493  0.21225140686510358  1.0000
  C   C12       1.0  0.15027263580882685  0.7079362058757211  0.7877485929013434  1.0000
  C   C13       1.0  0.6610297828239343  0.23832455479758433  0.3750621222951944  1.0000
  C   C14       1.0  0.3389702172146028  0.7616754451952743  0.6249378782713918  1.0000
  C   C15       1.0  0.12011702541361267  0.7493658355788195  0.3600705239526293  1.0000
  C   C16       1.0  0.8798829750934366  0.2506341653944028  0.6399294765966514  1.0000
  C   C17       1.0  0.7022735478938856  0.6290623913227078  0.6689344330575397  1.0000
  C   C18       1.0  0.2977264519347371  0.3709376085710626  0.33106556670890724  1.0000
  C   C19       1.0  0.5740774502736351  0.6828878005247806  0.8384650993531229  1.0000
  C   C20       1.0  0.4259225497649022  0.31711219946807806  0.16153490121346353  1.0000
  C   C21       1.0  0.5688118241253456  0.5268547219495919  0.7003897094979985  1.0000
  C   C22       1.0  0.43118817617178923  0.47314527892454217  0.29961029025114283  1.0000
  C   C23       1.0  0.5020575133437678  0.551716402337599  0.7841244009499155  1.0000
  C   C24       1.0  0.4979424866947695  0.44828359765525977  0.21587559961667094  1.0000
  C   C25       1.0  0.7077922213906809  0.7832334192244549  0.8062525913189549  1.0000
  C   C26       1.0  0.2922077786478564  0.21676658076840385  0.1937474092476313  1.0000
  C   C27       1.0  0.7738215533492563  0.7595531170295491  0.7216096629033206  1.0000
  C   C28       1.0  0.22617844647936647  0.24044688286422136  0.27839033686312636  1.0000
  C   C29       1.0  0.5690830950521338  0.8237869338138255  0.9785515394306835  1.0000
  C   C30       1.0  0.43091690610100075  0.17621306621166286  0.021448461157869813  1.0000
  C   C31       1.0  0.30528230751908236  0.32805450045879636  0.7756792793303143  1.0000
  C   C32       1.0  0.6947176923095404  0.6719454994349741  0.22432072043613255  1.0000
  O   O1        1.0  0.7752351652310856  0.37261346251316024  0.3608972890445355  1.0000
  O   O2        1.0  0.22476483459753718  0.6273865373806102  0.6391027107219114  1.0000
  O   O3        1.0  0.9948674741616385  0.6146663093038457  0.3558519898674807  1.0000
  O   O4        1.0  0.005132525876898818  0.3853336906890129  0.6441480106991058  1.0000
  O   O5        1.0  0.37106803181863024  0.4642409673092053  0.8186101755709466  1.0000
  O   O6        1.0  0.6289319680099925  0.5357590325845651  0.18138982419550043  1.0000
  O   O7        1.0  0.5010870497974649  0.6972929607320817  0.9164280557811876  1.0000
  O   O8        1.0  0.49891295003115793  0.30270703916168873  0.08357194398525943  1.0000
  O   O9        1.0  0.47400306631167216  0.0620867004456626  0.6526996470088621  1.0000
  O   O10       1.0  0.5259969335169504  0.9379132994481078  0.3473003527575849  1.0000
  F   F1        1.0  0.5892149857745562  0.21357135671260039  0.8087106211753626  1.0000
  F   F2        1.0  0.4107850140540666  0.7864286431811701  0.19128937859108433  1.0000
  F   F3        1.0  0.23874044332076372  0.11035237167444442  0.6383087790197021  1.0000
  F   F4        1.0  0.7612595567177736  0.8896476283184144  0.3616912215468843  1.0000
  F   F5        1.0  0.46068711241460375  0.24692216285099525  0.5654699864201179  1.0000
  F   F6        1.0  0.5393128874140191  0.7530778370427752  0.434530013346329  1.0000
  F   F7        1.0  0.6690162361557384  0.044454253621903486  0.7903353368617759  1.0000
  F   F8        1.0  0.33098376478748154  0.9555457463044964  0.20966466292663788  1.0000
  F   F9        1.0  0.2974586383856662  0.03287073511592337  0.48939398184096655  1.0000
  F   F10       1.0  0.7025413614429565  0.967129264777847  0.5106060179254804  1.0000
  F   F11       1.0  0.41036166158319165  0.9976244357545132  0.8242972220829327  1.0000
  F   F12       1.0  0.5896383382454312  0.0023755641392572717  0.1757027776835143  1.0000
  I   I1        1.0  0.2375082282042829  0.49554028017227797  0.031994131333256154  1.0000
  I   I2        1.0  0.7624917716243398  0.5044597197214925  0.9680058684331909  1.0000
  I   I3        1.0  0.8882829080639336  0.17785743442837132  0.012078645318029544  1.0000
  I   I4        1.0  0.11171709197460383  0.8221425655644875  0.9879213552485567  1.0000
  I   I5        1.0  0.7881329237663052  0.5855728479774315  0.5408558514502255  1.0000
  I   I6        1.0  0.21186707606231756  0.41442715191633894  0.45914414831622136  1.0000
  I   I7        1.0  0.9712674424507967  0.9143408539016471  0.6781015127740164  1.0000
  I   I8        1.0  0.02873255784633829  0.08565914697248715  0.32189848697512485  1.0000
