data_image0
_chemical_formula_structural       H32C36N8O4F8I4
_chemical_formula_sum              "H32 C36 N8 O4 F8 I4"
_cell_length_a       5.952015608234657
_cell_length_b       8.37983478118903
_cell_length_c       20.113711310971887
_cell_angle_alpha    90.0
_cell_angle_beta     93.88832943628707
_cell_angle_gamma    90.0

_space_group_name_H-M_alt    "P 1"
_space_group_IT_number       1

loop_
  _space_group_symop_operation_xyz
  'x, y, z'

loop_
  _atom_site_type_symbol
  _atom_site_label
  _atom_site_symmetry_multiplicity
  _atom_site_fract_x
  _atom_site_fract_y
  _atom_site_fract_z
  _atom_site_occupancy
  H   H1        1.0  0.7237776933811384  0.43291201016796826  0.4839845124739733  1.0000
  H   H2        1.0  0.7762223053162447  0.9329120100970223  0.01601548750473093  1.0000
  H   H3        1.0  0.27622230642158074  0.5670879896901398  0.5160154877541366  1.0000
  H   H4        1.0  0.22377769437795397  0.06708798976108575  0.9839845122250616  1.0000
  H   H5        1.0  0.5736589136222551  0.5596220930903117  0.4238484982336348  1.0000
  H   H6        1.0  0.9263410850751281  0.05962209316125771  0.07615150174506953  1.0000
  H   H7        1.0  0.42634108607194365  0.4403779067677963  0.5761515014961578  1.0000
  H   H8        1.0  0.07365891472759109  0.9403779066968504  0.9238484984830406  1.0000
  H   H9        1.0  0.723061641914046  0.3889111319134591  0.39662411345671944  1.0000
  H   H10       1.0  0.7769383584638164  0.8889111330358541  0.10337588652366746  1.0000
  H   H11       1.0  0.27693835956915225  0.6110888679446489  0.6033758867730732  1.0000
  H   H12       1.0  0.22306164123038244  0.11108886801559492  0.8966241132061249  1.0000
  H   H13       1.0  0.29351504839675896  0.7265761186208111  0.42136725234862116  1.0000
  H   H14       1.0  0.2064849515046006  0.2265761186917571  0.07863274776543387  1.0000
  H   H15       1.0  0.7064849514059601  0.2734238824306379  0.5786327478794889  1.0000
  H   H16       1.0  0.793515048189598  0.773423882359692  0.9213672519643585  1.0000
  H   H17       1.0  0.7297365406708447  0.7540579110443275  0.23193351896296396  1.0000
  H   H18       1.0  0.7702634580265385  0.2540579111152735  0.2680664810157403  1.0000
  H   H19       1.0  0.27026345902335414  0.24594208881378057  0.7680664807668286  1.0000
  H   H20       1.0  0.2297365417761806  0.7459420887428346  0.7319335192123697  1.0000
  H   H21       1.0  0.21237608086087792  0.027269688003034292  0.22688580653835055  1.0000
  H   H22       1.0  0.2876239190404817  0.5272696879320884  0.2731141935757045  1.0000
  H   H23       1.0  0.7876239189418413  0.9727303118550739  0.7731141936897594  1.0000
  H   H24       1.0  0.7123760807622375  0.4727303119260198  0.7268858066524055  1.0000
  H   H25       1.0  0.9470827683810147  0.0029391319331602958  0.19641648338424292  1.0000
  H   H26       1.0  0.5529172319968476  0.5029391318622143  0.30358351659614397  1.0000
  H   H27       1.0  0.0529172314217045  0.9970608691182887  0.803583516843867  1.0000
  H   H28       1.0  0.4470827678058715  0.49706086918923464  0.6964164836319661  1.0000
  H   H29       1.0  0.3775092744384756  0.8942646550528639  0.323672067488073  1.0000
  H   H30       1.0  0.12249072546288399  0.39426465512380987  0.17632793262598204  1.0000
  H   H31       1.0  0.6224907253642434  0.10573534480524417  0.676327932740037  1.0000
  H   H32       1.0  0.8775092760203144  0.6057353459276391  0.8236720676038107  1.0000
  C   C1        1.0  0.7225750996631597  0.48419808814229076  0.4340738786031312  1.0000
  C   C2        1.0  0.7774248990342233  0.9841980880713449  0.06592612137557312  1.0000
  C   C3        1.0  0.2774249001395594  0.5158019117158174  0.5659261216249788  1.0000
  C   C4        1.0  0.22257510065997532  0.015801911786763302  0.9340738783542194  1.0000
  C   C5        1.0  0.17394866725339994  0.7365721856301555  0.3783481105676898  1.0000
  C   C6        1.0  0.3260513326479596  0.23657218570110142  0.12165188954636522  1.0000
  C   C7        1.0  0.8260513325493193  0.26342781422795264  0.6216518896604203  1.0000
  C   C8        1.0  0.6739486671547595  0.7634278141570067  0.8783481106817448  1.0000
  C   C9        1.0  0.858003538299922  0.7532369270775024  0.2735362112069259  1.0000
  C   C10       1.0  0.6419964620779401  0.2532369271484483  0.226463788773461  1.0000
  C   C11       1.0  0.14199646150279704  0.24676307278060572  0.7264637890211841  1.0000
  C   C12       1.0  0.3580035376162585  0.7467630727096597  0.7735362109563314  1.0000
  C   C13       1.0  0.9662251618697959  0.656722266452506  0.3779550099809654  1.0000
  C   C14       1.0  0.5337748385080664  0.15672226652345198  0.12204498999942155  1.0000
  C   C15       1.0  0.03377483793292316  0.3432777334056021  0.6220449902471447  1.0000
  C   C16       1.0  0.4662251611861324  0.8432777333346562  0.8779550097303709  1.0000
  C   C17       1.0  0.217956772727118  0.8304755704279576  0.3243281802715483  1.0000
  C   C18       1.0  0.2820432270657212  0.3304755704989036  0.17567181934418918  1.0000
  C   C19       1.0  0.7820432269670808  0.16952442943015045  0.6756718194582442  1.0000
  C   C20       1.0  0.7179567726284777  0.6695244293592045  0.8243281803856033  1.0000
  C   C21       1.0  0.052948061734538455  0.8458720267267886  0.2710608882940592  1.0000
  C   C22       1.0  0.4470519381668211  0.3458720267977345  0.2289391118199958  1.0000
  C   C23       1.0  0.9470519379596603  0.15412797313131954  0.7289391114357333  1.0000
  C   C24       1.0  0.552948061635898  0.6541279730603735  0.7710608884081142  1.0000
  C   C25       1.0  0.4112666034335685  0.6026001791032317  0.04820096400362125  1.0000
  C   C26       1.0  0.08873339814827015  0.1026001791741776  0.4517990361121164  1.0000
  C   C27       1.0  0.5887333980496297  0.39739982075487645  0.9517990362261715  1.0000
  C   C28       1.0  0.9112666032264076  0.8973998206839304  0.5482009636193588  1.0000
  C   C29       1.0  0.6192683032771277  0.5279352249200633  0.06010568503409295  1.0000
  C   C30       1.0  0.8807316971007346  0.02793522499100921  0.4398943149462939  1.0000
  C   C31       1.0  0.38073169809755014  0.47206477493804483  0.939894314697382  1.0000
  C   C32       1.0  0.11926830270198446  0.9720647748670989  0.5601056852818159  1.0000
  C   C33       1.0  0.2944741772435134  0.5724447552078522  0.9871349821462381  1.0000
  C   C34       1.0  0.20552582187554222  0.07244475527879811  0.5128650178312776  1.0000
  C   C35       1.0  0.7055258225592058  0.42755524465025596  0.012865018081871965  1.0000
  C   C36       1.0  0.7944741778186566  0.9275552445793099  0.48713498189851495  1.0000
  N   N1        1.0  0.8150140177154552  0.6596547120963225  0.3259147770112796  1.0000
  N   N2        1.0  0.684985980981928  0.15965471216726848  0.17408522296742474  1.0000
  N   N3        1.0  0.18498598197874344  0.3403452877617855  0.6740852227185129  1.0000
  N   N4        1.0  0.3150140188207913  0.8403452876908396  0.8259147772606854  1.0000
  N   N5        1.0  0.0892019883942402  0.9446604839715909  0.2164089336617822  1.0000
  N   N6        1.0  0.4107980115071193  0.4446604840425368  0.2835910664522728  1.0000
  N   N7        1.0  0.9107980114084789  0.055339515886517227  0.7835910665663278  1.0000
  N   N8        1.0  0.5892019882955998  0.5553395158155713  0.7164089337758373  1.0000
  O   O1        1.0  0.9250823613978025  0.5764866403863084  0.43437456208407066  1.0000
  O   O2        1.0  0.5749176389800598  0.07648664045725434  0.06562543789631634  1.0000
  O   O3        1.0  0.07491764008539573  0.42351335947179974  0.5656254381457221  1.0000
  O   O4        1.0  0.425082360714139  0.9235133594008538  0.9343745618334762  1.0000
  F   F1        1.0  0.09139607153344381  0.642502484904129  0.9721677514354325  1.0000
  F   F2        1.0  0.40860392926609096  0.1425024849750749  0.5278322485437658  1.0000
  F   F3        1.0  0.9086039281607547  0.35749751495397913  0.027832248294359936  1.0000
  F   F4        1.0  0.5913960705366282  0.8574975148830332  0.47216775168434433  1.0000
  F   F5        1.0  0.7408567124844186  0.550068879680937  0.11902810458892574  1.0000
  F   F6        1.0  0.7591432878934438  0.050068879751882955  0.3809718953914612  1.0000
  F   F7        1.0  0.2591432872097802  0.44993112017717113  0.8809718951408668  1.0000
  F   F8        1.0  0.2408567119092754  0.9499311201062252  0.6190281048366488  1.0000
  I   I1        1.0  0.27420890449214097  0.7519703054462709  0.12011090344745824  1.0000
  I   I2        1.0  0.2257910954092186  0.25197030551721683  0.37988909666659676  1.0000
  I   I3        1.0  0.7257910953105783  0.24802969441183717  0.8798890967806519  1.0000
  I   I4        1.0  0.7742089043935005  0.7480296943408913  0.6201109035615132  1.0000
