data_image0
_chemical_formula_structural       H44C64N4O4F8I4
_chemical_formula_sum              "H44 C64 N4 O4 F8 I4"
_cell_length_a       8.326981670689916
_cell_length_b       5.427977491046036
_cell_length_c       30.90929097773778
_cell_angle_alpha    90.0
_cell_angle_beta     95.05518898849806
_cell_angle_gamma    90.0

_space_group_name_H-M_alt    "P 1"
_space_group_IT_number       1

loop_
  _space_group_symop_operation_xyz
  'x, y, z'

loop_
  _atom_site_type_symbol
  _atom_site_label
  _atom_site_symmetry_multiplicity
  _atom_site_fract_x
  _atom_site_fract_y
  _atom_site_fract_z
  _atom_site_occupancy
  H   H1        1.0  0.14348729192640883  0.5634087862458425  0.35350394690499404  1.0000
  H   H2        1.0  0.3565127078950628  0.06340878726335177  0.1464960531569333  1.0000
  H   H3        1.0  0.8565127077165344  0.43659121356144565  0.6464960532188606  1.0000
  H   H4        1.0  0.6434872917478803  0.9365912125439364  0.8535039469669212  1.0000
  H   H5        1.0  0.8686884526745756  0.7026160510597546  0.3287588407780085  1.0000
  H   H6        1.0  0.6313115475835691  0.2026160502349571  0.17124115915205482  1.0000
  H   H7        1.0  0.13131154696836758  0.2973839487475335  0.671241159345846  1.0000
  H   H8        1.0  0.3686884531574768  0.7973839495723309  0.8287588406478608  1.0000
  H   H9        1.0  0.34429932305307476  0.15940265990919927  0.2831102802908373  1.0000
  H   H10       1.0  0.15570067676839688  0.6594026588916899  0.21688971977109  1.0000
  H   H11       1.0  0.6557006764867817  0.8405973417403957  0.7168897195082277  1.0000
  H   H12       1.0  0.8442993240757358  0.3405973409155982  0.7831102803536152  1.0000
  H   H13       1.0  0.06946291795465671  0.2995498567711747  0.2583382855186251  1.0000
  H   H14       1.0  0.43053708186681494  0.7995498557536652  0.24166171454330224  1.0000
  H   H15       1.0  0.9305370816882864  0.7004501430361134  0.7416617146052296  1.0000
  H   H16       1.0  0.5694629177761283  0.20045014405362283  0.7583382855805524  1.0000
  H   H17       1.0  0.31959094124902365  0.8025705609844896  0.4142127865928237  1.0000
  H   H18       1.0  0.18040905857244802  0.30257056200199905  0.08578721346910362  1.0000
  H   H19       1.0  0.6804090583939196  0.19742943882279837  0.5857872135310309  1.0000
  H   H20       1.0  0.8195909422716846  0.697429437805289  0.9142127866556016  1.0000
  H   H21       1.0  0.5971874649806104  0.3419352020272146  0.3352052333155422  1.0000
  H   H22       1.0  0.9028125352775341  0.8419352010097052  0.1647947666145211  1.0000
  H   H23       1.0  0.4028125358635222  0.6580647996223803  0.6647947668091629  1.0000
  H   H24       1.0  0.0971874642623222  0.1580647987975828  0.8352052331845441  1.0000
  H   H25       1.0  0.540084189330917  0.13755691346024917  0.46763576772586846  1.0000
  H   H26       1.0  0.9599158109272276  0.6375569142850466  0.03236423220419482  1.0000
  H   H27       1.0  0.4599158115132157  0.8624430863470389  0.5323642323988368  1.0000
  H   H28       1.0  0.04008418861262875  0.36244308552224147  0.9676357675948702  1.0000
  H   H29       1.0  0.6459057613814632  0.04693241827554208  0.3966431470744212  1.0000
  H   H30       1.0  0.8540942388766815  0.5469324191003395  0.1033568528556421  1.0000
  H   H31       1.0  0.3540942382614801  0.9530675815317461  0.6033568530494334  1.0000
  H   H32       1.0  0.14590576186436433  0.4530675807069485  0.8966431469442735  1.0000
  H   H33       1.0  0.3791414217410128  0.519919829191507  0.4764985741663775  1.0000
  H   H34       1.0  0.12085857928164823  0.019919828366709594  0.023501425896400356  1.0000
  H   H35       1.0  0.6208585791031199  0.480080170615781  0.5235014259583277  1.0000
  H   H36       1.0  0.8791414215624843  0.9800801714405786  0.9764985742283048  1.0000
  H   H37       1.0  0.7018432808691522  0.01605385433962201  0.2918337735580435  1.0000
  H   H38       1.0  0.7981567194920792  0.5160538533221126  0.20816622669680931  1.0000
  H   H39       1.0  0.2981567187737911  0.983946145467666  0.7081662265658111  1.0000
  H   H40       1.0  0.20184328135205343  0.4839461464851754  0.7918337734278958  1.0000
  H   H41       1.0  0.7817193193477063  0.25069053846385214  0.2617600178305811  1.0000
  H   H42       1.0  0.7182806810135252  0.7506905392886497  0.2382399824242717  1.0000
  H   H43       1.0  0.21828068029523687  0.7493094613434359  0.7382399822932735  1.0000
  H   H44       1.0  0.28171931983060755  0.24930946051863848  0.7617600177004334  1.0000
  C   C1        1.0  0.9125647245726383  0.5627967074364737  0.46137508437084124  1.0000
  C   C2        1.0  0.5874352756855062  0.062796708453983  0.038624915559222046  1.0000
  C   C3        1.0  0.0874352761684075  0.4372032923708145  0.5386249154290744  1.0000
  C   C4        1.0  0.412564723957437  0.9372032931956118  0.9613750845646325  1.0000
  C   C5        1.0  0.015433079333773851  0.3593537819966352  0.4619357068462493  1.0000
  C   C6        1.0  0.48456692048769784  0.8593537828214326  0.03806429321567798  1.0000
  C   C7        1.0  0.9845669202060827  0.6406462178106529  0.5380642929528158  1.0000
  C   C8        1.0  0.5154330791552455  0.14064621698585544  0.9619357069081765  1.0000
  C   C9        1.0  0.10249438900650713  0.29900035375556333  0.5011752201393618  1.0000
  C   C10       1.0  0.39750561111933735  0.7990003545803608  0.9988247798543453  1.0000
  C   C11       1.0  0.8975056106364361  0.7009996460517247  0.4988247799844929  1.0000
  C   C12       1.0  0.6024943896217085  0.20099964522692726  0.0011752199455703936  1.0000
  C   C13       1.0  0.949400396863036  0.011868529319856316  0.2916340407936811  1.0000
  C   C14       1.0  0.5505996021939192  0.5118685301446538  0.20836595913553158  1.0000
  C   C15       1.0  0.05059960277990729  0.9881314704874318  0.7083659593301734  1.0000
  C   C16       1.0  0.4494003973459372  0.48813146966263427  0.7916340406635335  1.0000
  C   C17       1.0  0.1280457309959749  0.7261201518432333  0.332938399742519  1.0000
  C   C18       1.0  0.3719542688254967  0.22612015286074263  0.16706160031940837  1.0000
  C   C19       1.0  0.8719542685438816  0.2738798479640548  0.6670616000565461  1.0000
  C   C20       1.0  0.6280457320186359  0.7738798469465454  0.8329383998052968  1.0000
  C   C21       1.0  0.26525900798855095  0.8509274453733778  0.3203682037772321  1.0000
  C   C22       1.0  0.23474099183292066  0.3509274445485803  0.17963179628469517  1.0000
  C   C23       1.0  0.7347409915513055  0.1490725544339103  0.6796317960218329  1.0000
  C   C24       1.0  0.7652590078100225  0.6490725552587078  0.8203682038391593  1.0000
  C   C25       1.0  0.9732070521721942  0.8027886882707493  0.31898322023446174  1.0000
  C   C26       1.0  0.5267929480859506  0.30278868928825864  0.18101677969560157  1.0000
  C   C27       1.0  0.02679294736766231  0.1972113115365388  0.6810167795646033  1.0000
  C   C28       1.0  0.4732070515569927  0.6972113105190294  0.818983220428253  1.0000
  C   C29       1.0  0.24025319893978803  0.05815671684724802  0.292918561581485  1.0000
  C   C30       1.0  0.25974680088168356  0.5581567158297386  0.20708143848044236  1.0000
  C   C31       1.0  0.7597468006000684  0.94184328296004  0.7070814382175801  1.0000
  C   C32       1.0  0.7402531999624491  0.4418432839775494  0.7929185616442628  1.0000
  C   C33       1.0  0.4282820128447645  0.7635730190180423  0.3335157200961132  1.0000
  C   C34       1.0  0.07171798697670712  0.2635730200355516  0.16648427996581416  1.0000
  C   C35       1.0  0.5717179866950919  0.23642698078924584  0.6664842797029519  1.0000
  C   C36       1.0  0.9282820126662362  0.7364269797717364  0.8335157201580405  1.0000
  C   C37       1.0  0.0869603706462876  0.13850505666984972  0.27918594067057156  1.0000
  C   C38       1.0  0.413039629175184  0.6385050556523403  0.22081405939135576  1.0000
  C   C39       1.0  0.9130396301978451  0.8614949431374382  0.7208140594541337  1.0000
  C   C40       1.0  0.5869603704677592  0.3614949441549477  0.7791859407324989  1.0000
  C   C41       1.0  0.39193627953892124  0.6375660171230892  0.41051992096284684  1.0000
  C   C42       1.0  0.10806372028255042  0.13756601814059863  0.08948007909908044  1.0000
  C   C43       1.0  0.608063720104022  0.3624339826841988  0.5894800791610078  1.0000
  C   C44       1.0  0.8919362793603929  0.8624339816666895  0.9105199210247742  1.0000
  C   C45       1.0  0.45423391359336174  0.588557989650828  0.37066787824313674  1.0000
  C   C46       1.0  0.04576608622810987  0.08855798882603051  0.12933212181879053  1.0000
  C   C47       1.0  0.5457660860495814  0.41144201015646015  0.629332121880718  1.0000
  C   C48       1.0  0.9542339133117466  0.9114420109812575  0.8706678779802746  1.0000
  C   C49       1.0  0.5482245727650721  0.3775944471731814  0.3661749269684155  1.0000
  C   C50       1.0  0.9517754263949699  0.8775944479979788  0.13382507328558674  1.0000
  C   C51       1.0  0.4517754268778711  0.6224055526341067  0.6338250731554391  1.0000
  C   C52       1.0  0.048224573247973336  0.12240555180930925  0.8661749268382678  1.0000
  C   C53       1.0  0.5163931712504574  0.2650381108567863  0.44056708499080205  1.0000
  C   C54       1.0  0.9836068290076873  0.7650381098392769  0.059432914939261255  1.0000
  C   C55       1.0  0.4836068283924858  0.7349618889505017  0.5594329151330525  1.0000
  C   C56       1.0  0.01639317173335858  0.23496188996801118  0.9405670848606544  1.0000
  C   C57       1.0  0.5763705351044621  0.2137874985506564  0.4007042545943007  1.0000
  C   C58       1.0  0.9236294651536824  0.7137874993754538  0.0992957453357626  1.0000
  C   C59       1.0  0.4236294644353943  0.7862125012566316  0.5992957452047644  1.0000
  C   C60       1.0  0.07637053569045021  0.2862125004318342  0.9007042547889426  1.0000
  C   C61       1.0  0.42565771425934507  0.4782263843728206  0.4454764006969888  1.0000
  C   C62       1.0  0.074342286763316  0.9782263833553112  0.05452359936578912  1.0000
  C   C63       1.0  0.5743422865847876  0.5217736154344674  0.5545235994277163  1.0000
  C   C64       1.0  0.9256577140808167  0.02177361645197685  0.945476400758916  1.0000
  N   N1        1.0  0.7974751634076174  0.08469759330402146  0.27696618014711205  1.0000
  N   N2        1.0  0.7025248356493378  0.5846975922865121  0.22303381978210068  1.0000
  N   N3        1.0  0.20252483613223898  0.9153024065032666  0.723033819651953  1.0000
  N   N4        1.0  0.29747516399360546  0.41530240752077596  0.7769661803417539  1.0000
  O   O1        1.0  0.5473088087179596  0.8282680809594886  0.3141568683079245  1.0000
  O   O2        1.0  0.952691191540185  0.32826808013469116  0.18584313162213878  1.0000
  O   O3        1.0  0.45269119092498367  0.17173191884779945  0.6858431318159302  1.0000
  O   O4        1.0  0.04730880920086084  0.6717319196725969  0.8141568681777769  1.0000
  F   F1        1.0  0.8260667683495555  0.6297432507114663  0.4242752636730869  1.0000
  F   F2        1.0  0.6739332320116759  0.1297432498866689  0.07572473658176594  1.0000
  F   F3        1.0  0.17393323129338775  0.37025674909582174  0.5757247364507677  1.0000
  F   F4        1.0  0.3260667688324567  0.8702567499206192  0.9242752635429393  1.0000
  F   F5        1.0  0.2037969051395282  0.1028627165313469  0.5036468933419056  1.0000
  F   F6        1.0  0.29620309498631625  0.6028627155138375  0.9963531066518013  1.0000
  F   F7        1.0  0.7962030956015176  0.8971372832759411  0.49635310645801  1.0000
  F   F8        1.0  0.703796904656627  0.3971372842934506  0.0036468934720532468  1.0000
  I   I1        1.0  0.03238454524545902  0.1481826889162349  0.4060808504137585  1.0000
  I   I2        1.0  0.4676154544729257  0.6481826878987256  0.09391914932337916  1.0000
  I   I3        1.0  0.9676154542943974  0.85181731273336  0.5939191493853064  1.0000
  I   I4        1.0  0.5323845450669308  0.3518173119085625  0.9060808504756858  1.0000
