data_image0
_chemical_formula_structural       H32C48N12O24
_chemical_formula_sum              "H32 C48 N12 O24"
_cell_length_a       5.65521364035393
_cell_length_b       21.168496609287374
_cell_length_c       10.201926770471207
_cell_angle_alpha    90.0
_cell_angle_beta     91.47770521134754
_cell_angle_gamma    90.0

_space_group_name_H-M_alt    "P 1"
_space_group_IT_number       1

loop_
  _space_group_symop_operation_xyz
  'x, y, z'

loop_
  _atom_site_type_symbol
  _atom_site_label
  _atom_site_symmetry_multiplicity
  _atom_site_fract_x
  _atom_site_fract_y
  _atom_site_fract_z
  _atom_site_occupancy
  H   H1        1.0  0.38985021785726887  0.7083796533486943  0.22839360270292505  1.0000
  H   H2        1.0  0.6101497822740541  0.2083796535680621  0.77160639735217  1.0000
  H   H3        1.0  0.37949672514087884  0.5072721836698018  0.43502729930023626  1.0000
  H   H4        1.0  0.6205032749904441  0.0072721838891695555  0.5649727007548587  1.0000
  H   H5        1.0  0.960432419386376  0.39585218046725024  0.293892982748862  1.0000
  H   H6        1.0  0.039567580744947005  0.8958521802478824  0.706107017306233  1.0000
  H   H7        1.0  0.8683032638796058  0.5891537561778625  0.16662267859870347  1.0000
  H   H8        1.0  0.13169673625171732  0.08915375592483009  0.8333773214563915  1.0000
  H   H9        1.0  0.3155622508945988  0.2686678839301598  0.9903968054968483  1.0000
  H   H10       1.0  0.6844377492367243  0.7686678837107919  0.009603194558246738  1.0000
  H   H11       1.0  0.45488799925225887  0.45730393323032903  0.8483550595737516  1.0000
  H   H12       1.0  0.5451120008790642  0.9573039334833613  0.15164494048134358  1.0000
  H   H13       1.0  0.850320910986154  0.3527600843757504  0.6996696252905119  1.0000
  H   H14       1.0  0.1496790891451689  0.8527600841563826  0.30033037476458313  1.0000
  H   H15       1.0  0.7968447850703012  0.1528179232426323  0.5162364044359491  1.0000
  H   H16       1.0  0.20315521506102177  0.6528179234956646  0.48376359561914606  1.0000
  H   H17       1.0  0.10498507326121613  0.19634723980239813  0.6335452729227866  1.0000
  H   H18       1.0  0.895014926870107  0.6963472400554305  0.3664547271323084  1.0000
  H   H19       1.0  0.3797734670255703  0.27456870590658655  0.5259096153418601  1.0000
  H   H20       1.0  0.6202265331057527  0.7745687056872188  0.47409038471323495  1.0000
  H   H21       1.0  0.30787186647801296  0.298627090845296  0.28710724720671604  1.0000
  H   H22       1.0  0.69212813365331  0.7986270906259281  0.712892752848379  1.0000
  H   H23       1.0  0.9724491603165185  0.2469948157634429  0.16619572003871588  1.0000
  H   H24       1.0  0.027550839814804474  0.7469948155440751  0.8338042800163791  1.0000
  H   H25       1.0  0.7353330666499843  0.18167250849135597  0.07206193258791024  1.0000
  H   H26       1.0  0.2646669334813387  0.6816725082719881  0.9279380674671848  1.0000
  H   H27       1.0  0.3832610863267037  0.1251882280028016  0.9846686762408073  1.0000
  H   H28       1.0  0.6167389138046193  0.6251882282558339  0.015331323814287806  1.0000
  H   H29       1.0  0.11899558361540295  0.06823427410363582  0.1418515638351177  1.0000
  H   H30       1.0  0.8810044165159201  0.5682342743566681  0.8581484362199774  1.0000
  H   H31       1.0  0.22143480118231068  0.07348157824857289  0.38193959920714793  1.0000
  H   H32       1.0  0.7785651989490124  0.5734815780292051  0.6180604008479472  1.0000
  C   C1        1.0  0.6069887358877019  0.5538478332399008  0.2996388425403451  1.0000
  C   C2        1.0  0.39301126424362126  0.053847832986868564  0.7003611575147498  1.0000
  C   C3        1.0  0.5354927150972381  0.5027665684737678  0.37553031223810035  1.0000
  C   C4        1.0  0.46450728503780675  0.0027665682207354226  0.624469686836843  1.0000
  C   C5        1.0  0.6643791122498912  0.4468541812199312  0.37207256751515744  1.0000
  C   C6        1.0  0.3356208878814318  0.9468541814729635  0.6279274325399375  1.0000
  C   C7        1.0  0.8634759795163973  0.4400091037128008  0.29656146981141446  1.0000
  C   C8        1.0  0.13652402061492572  0.940009103965833  0.7034385302436805  1.0000
  C   C9        1.0  0.9302958573818101  0.4918759301702968  0.22269512186230164  1.0000
  C   C10       1.0  0.06970414098064871  0.9918759304233291  0.7773048781654451  1.0000
  C   C11       1.0  0.8081669229127497  0.5490030659475932  0.22345880582671349  1.0000
  C   C12       1.0  0.1918330772185733  0.04900306616696106  0.7765411942283815  1.0000
  C   C13       1.0  0.45625705277061235  0.6125623925655119  0.2967419701159444  1.0000
  C   C14       1.0  0.5437429473607107  0.11256239231247962  0.7032580299391505  1.0000
  C   C15       1.0  0.0682987103122438  0.30484904994002987  0.8450097259512601  1.0000
  C   C16       1.0  0.931701289822801  0.8048490497206621  0.15499027312368335  1.0000
  C   C17       1.0  0.26898304365495357  0.3084031625153647  0.9272560598546907  1.0000
  C   C18       1.0  0.7310169564763694  0.8084031622959968  0.0727439402004042  1.0000
  C   C19       1.0  0.40537333474873477  0.3630457997016311  0.9260044959656513  1.0000
  C   C20       1.0  0.5946266653825882  0.8630457994822632  0.07399550408944379  1.0000
  C   C21       1.0  0.34932544422161466  0.41449824765309035  0.8464382203185108  1.0000
  C   C22       1.0  0.6506745559097084  0.9144982474337225  0.1535617797365842  1.0000
  C   C23       1.0  0.14761058574345703  0.40944160796933315  0.7668377007557374  1.0000
  C   C24       1.0  0.852389414387866  0.9094416077499654  0.2331622992993577  1.0000
  C   C25       1.0  0.007028630140247472  0.35551874272914424  0.7633329913194036  1.0000
  C   C26       1.0  0.9929713699910756  0.8555187429821766  0.23666700873569144  1.0000
  C   C27       1.0  0.9134290471196527  0.24721769129811502  0.8505926011164952  1.0000
  C   C28       1.0  0.08657095301167035  0.7472176910787472  0.14940739893859992  1.0000
  C   C29       1.0  0.08369086578700657  0.21117251085458577  0.5318704390871766  1.0000
  C   C30       1.0  0.9163091343443165  0.7111725111076181  0.4681295609679184  1.0000
  C   C31       1.0  0.23323651034807974  0.25306373564808105  0.4710503707507612  1.0000
  C   C32       1.0  0.7667634897832433  0.7530637354287132  0.5289496293043338  1.0000
  C   C33       1.0  0.19177378383435906  0.2661864998730154  0.33810945153233724  1.0000
  C   C34       1.0  0.808226216296964  0.7661864996536476  0.6618905485227577  1.0000
  C   C35       1.0  0.004852084910819834  0.23723854663333424  0.2697629631140402  1.0000
  C   C36       1.0  0.9951479152205032  0.7372385464139665  0.7302370369410548  1.0000
  C   C37       1.0  0.8564205280131616  0.19543037450212525  0.3350399558312053  1.0000
  C   C38       1.0  0.14357947211816133  0.6954303742827574  0.6649600442238897  1.0000
  C   C39       1.0  0.653381318347246  0.16115365644357124  0.27534039252270764  1.0000
  C   C40       1.0  0.3466186800152129  0.6611536566966035  0.7246596075050391  1.0000
  C   C41       1.0  0.6142981578527782  0.1593621494367221  0.13944355463503874  1.0000
  C   C42       1.0  0.3857018422785448  0.6593621496897545  0.8605564454200564  1.0000
  C   C43       1.0  0.41901676840389285  0.12591443923469678  0.09000518429174753  1.0000
  C   C44       1.0  0.5809832317274303  0.6259144394877292  0.9099948157633476  1.0000
  C   C45       1.0  0.2737098872190775  0.09461576638944062  0.17697953115921936  1.0000
  C   C46       1.0  0.7262901129122454  0.594615766642473  0.8230204688958758  1.0000
  C   C47       1.0  0.32981937003105666  0.09824696143454721  0.3113673621397843  1.0000
  C   C48       1.0  0.6701806301002663  0.5982469612151794  0.6886326379153107  1.0000
  N   N1        1.0  0.5846724179768332  0.3925501301946138  0.44779625418047203  1.0000
  N   N2        1.0  0.4153275821544897  0.892550129975246  0.552203745874623  1.0000
  N   N3        1.0  0.13476305059968557  0.4848132571444567  0.13875981119648786  1.0000
  N   N4        1.0  0.8652369477627734  0.9848132573974892  0.8612401888312589  1.0000
  N   N5        1.0  0.07616584477477821  0.4642565951371471  0.6875334469629738  1.0000
  N   N6        1.0  0.9238341553565447  0.9642565949177793  0.31246655309212124  1.0000
  N   N7        1.0  0.6144906389023632  0.367616003329486  0.013072700143552139  1.0000
  N   N8        1.0  0.38550936122895985  0.8676160031101182  0.9869272999115427  1.0000
  N   N9        1.0  0.5132653612670776  0.1310766239668925  0.36044731632580507  1.0000
  N   N10       1.0  0.48673463886424534  0.6310766237475247  0.63955268372929  1.0000
  N   N11       1.0  0.9028700155116569  0.18456117466017458  0.4639264972357303  1.0000
  N   N12       1.0  0.0971299846196661  0.6845611744408068  0.5360735028193646  1.0000
  O   O1        1.0  0.7076899066380871  0.3439004901654692  0.4480421692289406  1.0000
  O   O2        1.0  0.2923100934932359  0.8439004904185015  0.5519578308261545  1.0000
  O   O3        1.0  0.2630492093856168  0.4377526274555761  0.1569216484469392  1.0000
  O   O4        1.0  0.7369507907457062  0.9377526272362082  0.8430783516081557  1.0000
  O   O5        1.0  0.16917106789042458  0.5257954244665982  0.05460778539398202  1.0000
  O   O6        1.0  0.8308289322408984  0.02579542421356594  0.945392214661113  1.0000
  O   O7        1.0  0.25708401946629494  0.6098098366766617  0.3482232093548579  1.0000
  O   O8        1.0  0.742915978896164  0.10980983642362939  0.6517767906728889  1.0000
  O   O9        1.0  0.5439465130030404  0.660696681400788  0.2385442438070847  1.0000
  O   O10       1.0  0.45605348712828253  0.16069668162015577  0.7614557562480104  1.0000
  O   O11       1.0  0.39660948482247554  0.39772022668375157  0.5070852147965262  1.0000
  O   O12       1.0  0.6033905153088476  0.8977202264643838  0.4929147852585688  1.0000
  O   O13       1.0  0.7241363130676923  0.25151727107838473  0.7737841624816342  1.0000
  O   O14       1.0  0.27586368529476646  0.7515172708590169  0.22621583754611257  1.0000
  O   O15       1.0  0.9664483575754489  0.20258126541298885  0.9237780051860036  1.0000
  O   O16       1.0  0.033551642555874145  0.7025812651936211  0.07622199486909147  1.0000
  O   O17       1.0  0.8859561574591639  0.460651431227372  0.6244692069720092  1.0000
  O   O18       1.0  0.11404384267215907  0.9606514314804044  0.37553079308308573  1.0000
  O   O19       1.0  0.20610698393243526  0.511335951238551  0.6892571060606041  1.0000
  O   O20       1.0  0.7938930161988877  0.011335950985518678  0.310742893994491  1.0000
  O   O21       1.0  0.6421389413387929  0.32670286688974354  0.09950439109265499  1.0000
  O   O22       1.0  0.35786105879253016  0.8267028666703756  0.9004956089624401  1.0000
  O   O23       1.0  0.7529609330302769  0.4119460881399628  0.9949530060335744  1.0000
  O   O24       1.0  0.24703906710104612  0.911946087920595  0.005046994021520726  1.0000
