data_image0
_chemical_formula_structural       H32C32N6O4P2S4
_chemical_formula_sum              "H32 C32 N6 O4 P2 S4"
_cell_length_a       7.954124383252902
_cell_length_b       8.876800701904921
_cell_length_c       12.557306196637072
_cell_angle_alpha    72.00212952351127
_cell_angle_beta     75.26838555954318
_cell_angle_gamma    87.99167971191264

_space_group_name_H-M_alt    "P 1"
_space_group_IT_number       1

loop_
  _space_group_symop_operation_xyz
  'x, y, z'

loop_
  _atom_site_type_symbol
  _atom_site_label
  _atom_site_symmetry_multiplicity
  _atom_site_fract_x
  _atom_site_fract_y
  _atom_site_fract_z
  _atom_site_occupancy
  H   H1        1.0  0.9588569977542362  0.7609394139874021  0.29781953915393294  1.0000
  H   H2        1.0  0.04114300286218347  0.23906058694232232  0.7021804608778384  1.0000
  H   H3        1.0  0.1893924280519212  0.6679045546507647  0.1614986905863283  1.0000
  H   H4        1.0  0.8106075713703825  0.3320954451409479  0.8385013094382263  1.0000
  H   H5        1.0  0.3589009346985631  0.8598434641142239  0.977817649813042  1.0000
  H   H6        1.0  0.6410990647237406  0.14015653567748892  0.022182350211512686  1.0000
  H   H7        1.0  0.29547424058269356  0.14663004931556523  0.9306038574681001  1.0000
  H   H8        1.0  0.70452575883961  0.8533699504761474  0.06939614255645453  1.0000
  H   H9        1.0  0.059022060919391786  0.23949460279715815  0.06402275367091033  1.0000
  H   H10       1.0  0.9409779396970279  0.7605053981325662  0.9359772463608608  1.0000
  H   H11       1.0  0.5080238522767029  0.21881851736578892  0.4919552166001344  1.0000
  H   H12       1.0  0.4919761471456006  0.7811814824259236  0.5080447834244202  1.0000
  H   H13       1.0  0.22496707712386205  0.34421432453282863  0.49194414923475527  1.0000
  H   H14       1.0  0.7750329222984416  0.6557856752588839  0.5080558507897994  1.0000
  H   H15       1.0  0.21316351483690077  0.6184367158117143  0.3649261039592013  1.0000
  H   H16       1.0  0.7868364858398671  0.38156328399164546  0.6350738960707559  1.0000
  H   H17       1.0  0.4846988042821526  0.7696297795547412  0.2345836330935004  1.0000
  H   H18       1.0  0.5153011967356697  0.23037022061920792  0.7654163660702556  1.0000
  H   H19       1.0  0.7703558792356353  0.6418826931293091  0.23082775698167743  1.0000
  H   H20       1.0  0.2296441201866682  0.35811730666240343  0.7691722430428771  1.0000
  H   H21       1.0  0.5999896582232047  0.9461022943793965  0.6485335934818387  1.0000
  H   H22       1.0  0.40001034119909895  0.05389770541231605  0.35146640654271594  1.0000
  H   H23       1.0  0.7782260049950339  0.9729263264263905  0.7044793300743696  1.0000
  H   H24       1.0  0.22177399436692133  0.027073674491686506  0.29552066995199916  1.0000
  H   H25       1.0  0.7609514652594436  0.7991853071703954  0.6628182736341199  1.0000
  H   H26       1.0  0.23904853541732424  0.20081469263296445  0.3371817263958373  1.0000
  H   H27       1.0  0.2154499686810288  0.55213600050801  0.9500177079846461  1.0000
  H   H28       1.0  0.7845500307412747  0.44786399928370263  0.049982292039908505  1.0000
  H   H29       1.0  0.2261192417275712  0.3820143942285371  0.14778970463329372  1.0000
  H   H30       1.0  0.7738807576947322  0.6179856055631754  0.852210295391261  1.0000
  H   H31       1.0  0.4866758394099902  0.6708006603909736  0.8040493923484183  1.0000
  H   H32       1.0  0.5133241612667778  0.3291993394123864  0.19595060768153874  1.0000
  C   C1        1.0  0.9949712974905516  0.0054090577397257105  0.18749830185549995  1.0000
  C   C2        1.0  0.005028703186216414  0.9945909420636341  0.8125016981744574  1.0000
  C   C3        1.0  0.030757140950716088  0.8447063977663898  0.21656361466616064  1.0000
  C   C4        1.0  0.9692428584715874  0.1552936020253228  0.783436385358394  1.0000
  C   C5        1.0  0.16211143788749  0.7931718606312649  0.1400964042497249  1.0000
  C   C6        1.0  0.8378885627892779  0.2068281391720949  0.8599035957802322  1.0000
  C   C7        1.0  0.25747108958030523  0.9011915597128709  0.03737128634257819  1.0000
  C   C8        1.0  0.7425289098419984  0.09880844007884178  0.9626287136819763  1.0000
  C   C9        1.0  0.2209136379953629  0.06167139093267059  0.010231861188118368  1.0000
  C   C10       1.0  0.7790863626814051  0.938328608870689  0.9897681388418389  1.0000
  C   C11       1.0  0.0884353307911501  0.11482525188293256  0.08453193183393268  1.0000
  C   C12       1.0  0.9115646698856177  0.8851747479204273  0.9154680681960247  1.0000
  C   C13       1.0  0.6542889418020407  0.4237119869710953  0.3601724102193531  1.0000
  C   C14       1.0  0.34571105762026283  0.5762880128206173  0.6398275898052016  1.0000
  C   C15       1.0  0.5028374691108354  0.33806154579066533  0.434017288168097  1.0000
  C   C16       1.0  0.49716253031146823  0.6619384540010471  0.5659827118564577  1.0000
  C   C17       1.0  0.3439495940798515  0.40953730052036014  0.43428132016009713  1.0000
  C   C18       1.0  0.6560504065969165  0.5904626992829998  0.56571867986986  1.0000
  C   C19       1.0  0.3377791515819375  0.5639367694089987  0.36247844837418286  1.0000
  C   C20       1.0  0.6622208481814206  0.43606323075330317  0.6375215507841706  1.0000
  C   C21       1.0  0.49019446466212013  0.6484058516438845  0.28950386129803085  1.0000
  C   C22       1.0  0.5098055360146477  0.35159414815947526  0.7104961387319263  1.0000
  C   C23       1.0  0.6499439633728873  0.5781049990794584  0.2873045579739015  1.0000
  C   C24       1.0  0.3500560360494164  0.42189500071225405  0.712695442050653  1.0000
  C   C25       1.0  0.738718243974166  0.9263445017070704  0.6426993866682172  1.0000
  C   C26       1.0  0.2612817554481376  0.07365549808464207  0.35730061335633734  1.0000
  C   C27       1.0  0.3398453017242395  0.5284619265423307  0.9724041032876346  1.0000
  C   C28       1.0  0.6601546976377158  0.47153807437574646  0.027595896738734048  1.0000
  C   C29       1.0  0.3463687844108115  0.4326891257301153  0.08291648300253016  1.0000
  C   C30       1.0  0.6536312162659562  0.5673108740732444  0.9170835170274271  1.0000
  C   C31       1.0  0.49345233413416867  0.5959062919756986  0.8896482880698472  1.0000
  C   C32       1.0  0.5065476665425992  0.40409370782766135  0.11035171196011007  1.0000
  N   N1        1.0  0.8029714396268942  0.9610066399246359  0.40824123911008536  1.0000
  N   N2        1.0  0.19702856104987376  0.038993359878724286  0.5917587609198718  1.0000
  N   N3        1.0  0.8823683390951731  0.2483436840763617  0.25585362775078896  1.0000
  N   N4        1.0  0.11763166032713031  0.7516563157153506  0.7441463722737658  1.0000
  N   N5        1.0  0.8497795356784617  0.21833139920848357  0.47593599319068813  1.0000
  N   N6        1.0  0.15022046499830624  0.7816686005948764  0.5240640068392691  1.0000
  O   O1        1.0  0.6635266903403256  0.05282405073329747  0.2444534141026028  1.0000
  O   O2        1.0  0.33647331033644223  0.9471759490700623  0.7555465859273545  1.0000
  O   O3        1.0  0.9909121487098377  0.4607061520298815  0.3132372282084605  1.0000
  O   O4        1.0  0.009087850712465926  0.5392938477618311  0.6867627718160941  1.0000
  P   P1        1.0  0.8630570726208113  0.028509942156313965  0.5000375457815858  1.0000
  P   P2        1.0  0.13694292799560853  0.9714900587734104  0.49996245425018543  1.0000
  S   S1        1.0  0.8199552135914462  0.0694821175371557  0.28008624256814374  1.0000
  S   S2        1.0  0.18004478742637617  0.9305178826367932  0.7199137565956123  1.0000
  S   S3        1.0  0.8577243497200252  0.33498756607487185  0.3526015138956257  1.0000
  S   S4        1.0  0.14227564970227824  0.6650124337168407  0.6473984861289289  1.0000
