data_image0
_chemical_formula_structural       H56C32N8I16
_chemical_formula_sum              "H56 C32 N8 I16"
_cell_length_a       9.14623992505964
_cell_length_b       18.02313011500153
_cell_length_c       9.90256414366848
_cell_angle_alpha    90.0
_cell_angle_beta     100.69307514086321
_cell_angle_gamma    90.0

_space_group_name_H-M_alt    "P 1"
_space_group_IT_number       1

loop_
  _space_group_symop_operation_xyz
  'x, y, z'

loop_
  _atom_site_type_symbol
  _atom_site_label
  _atom_site_symmetry_multiplicity
  _atom_site_fract_x
  _atom_site_fract_y
  _atom_site_fract_z
  _atom_site_occupancy
  H   H1        1.0  0.6914994260118082  0.5304907942734002  0.5236624659289356  1.0000
  H   H2        1.0  0.8085005741360091  0.030490794134731984  0.9763375348633375  1.0000
  H   H3        1.0  0.30850057322608165  0.46950920544909364  0.47633753390739497  1.0000
  H   H4        1.0  0.19149942639286327  0.9695092055877621  0.023662466010770336  1.0000
  H   H5        1.0  0.8483127734460235  0.49018791650660243  0.6129573252141036  1.0000
  H   H6        1.0  0.6516872265061411  0.9901879166452706  0.8870426745505345  1.0000
  H   H7        1.0  0.15168722688719613  0.5098120832158916  0.3870426746323692  1.0000
  H   H8        1.0  0.3483127727317488  0.009812083077223293  0.11295732528579613  1.0000
  H   H9        1.0  0.8595952983563764  0.5647284636495083  0.5108306284350971  1.0000
  H   H10       1.0  0.6404047015957882  0.06472846351084012  0.9891693713295411  1.0000
  H   H11       1.0  0.14040470197684327  0.4352715360729856  0.4891693714113758  1.0000
  H   H12       1.0  0.3595952987374314  0.9352715362116538  0.01083062851693167  1.0000
  H   H13       1.0  0.6659906921279521  0.7857573950604971  0.954349645761681  1.0000
  H   H14       1.0  0.8340093078242125  0.28575739492182894  0.5456503540029572  1.0000
  H   H15       1.0  0.3340093082052675  0.21424260521683933  0.04565035408479186  1.0000
  H   H16       1.0  0.16599069250900716  0.714242604800665  0.45434964584351567  1.0000
  H   H17       1.0  0.7292961217028786  0.7744821815596606  0.7442520902084577  1.0000
  H   H18       1.0  0.7707038784449386  0.27448218142099234  0.7557479105838155  1.0000
  H   H19       1.0  0.27070387882599367  0.2255178181628333  0.2557479106656501  1.0000
  H   H20       1.0  0.22929612188828097  0.7255178183015016  0.2442520892626574  1.0000
  H   H21       1.0  0.7623966942763002  0.6871063417387391  0.5574713420410141  1.0000
  H   H22       1.0  0.7376033056758645  0.18710634160007084  0.9425286577236243  1.0000
  H   H23       1.0  0.23760330496158974  0.3128936585385974  0.4425286577953166  1.0000
  H   H24       1.0  0.2623966946573552  0.8128936586772657  0.05747134212284875  1.0000
  H   H25       1.0  0.8179692097428299  0.5055890481762317  0.8475170801229535  1.0000
  H   H26       1.0  0.6820307902093348  0.00558904859240603  0.6524829196416848  1.0000
  H   H27       1.0  0.18203079059038976  0.49441095154626225  0.1524829197235194  1.0000
  H   H28       1.0  0.3179692101238849  0.9944109516849304  0.3475170802047881  1.0000
  H   H29       1.0  0.7858748806189563  0.5921048353924674  0.03385966797987672  1.0000
  H   H30       1.0  0.7141251187961236  0.09210483580864164  0.4661403316586117  1.0000
  H   H31       1.0  0.21412511971426335  0.40789516433002665  0.9661403318665963  1.0000
  H   H32       1.0  0.2858748804417664  0.9078951644686949  0.5338596681777191  1.0000
  H   H33       1.0  0.526453556808474  0.6916793276448553  0.04012123693391522  1.0000
  H   H34       1.0  0.9735464426066059  0.19167932750618702  0.45987876270457323  1.0000
  H   H35       1.0  0.47354644242941585  0.30832067263248125  0.9598787629024156  1.0000
  H   H36       1.0  0.026453557726613876  0.8083206727711495  0.5401212371418997  1.0000
  H   H37       1.0  0.613650157294389  0.7557597183778  0.1703029986537939  1.0000
  H   H38       1.0  0.8863498423163437  0.2557597182391317  0.32969700201232943  1.0000
  H   H39       1.0  0.386349841943501  0.2442402818995366  0.8296970011825368  1.0000
  H   H40       1.0  0.11365015692154633  0.7442402814833623  0.6703029978240014  1.0000
  H   H41       1.0  0.6902590216346794  0.6652073160155946  0.16131833503787968  1.0000
  H   H42       1.0  0.8097409779760532  0.16520731587692628  0.33868166562824364  1.0000
  H   H43       1.0  0.30974097760321057  0.33479268426174197  0.8386816647984511  1.0000
  H   H44       1.0  0.19025902145748944  0.8347926838455677  0.6613183352357219  1.0000
  H   H45       1.0  0.9327861337354098  0.726794592083479  0.1413562136274954  1.0000
  H   H46       1.0  0.5672138656796701  0.22679459194481066  0.35864378601099306  1.0000
  H   H47       1.0  0.06721386659780994  0.2732054081938576  0.8586437862189774  1.0000
  H   H48       1.0  0.43278613355821977  0.7732054083325259  0.6413562138253377  1.0000
  H   H49       1.0  0.845827974009485  0.8157812985970753  0.1500988316803676  1.0000
  H   H50       1.0  0.6541720254055949  0.31578129845840697  0.3499011679581208  1.0000
  H   H51       1.0  0.15417202522840495  0.1842187016802613  0.8499011681559631  1.0000
  H   H52       1.0  0.34582797492762474  0.684218701264087  0.650098831888352  1.0000
  H   H53       1.0  0.9333924299496408  0.7941326350458291  0.006642858862858019  1.0000
  H   H54       1.0  0.5666075694654391  0.29413263490716085  0.4933571407756304  1.0000
  H   H55       1.0  0.06660757038357888  0.20586736467666483  0.993357140983615  1.0000
  H   H56       1.0  0.43339242977245085  0.7058673648153332  0.5066428590607004  1.0000
  C   C1        1.0  0.7885246835528628  0.5917362834285401  0.6925523296708804  1.0000
  C   C2        1.0  0.7114753163993018  0.09173628328987181  0.8074476700937577  1.0000
  C   C3        1.0  0.21147531678035686  0.4082637168487965  0.3074476701755924  1.0000
  C   C4        1.0  0.2885246828385881  0.9082637169874647  0.19255232974257297  1.0000
  C   C5        1.0  0.7511281075708686  0.6877159411773436  0.8983393539341269  1.0000
  C   C6        1.0  0.7488718923812959  0.1877159410386753  0.6016606458305113  1.0000
  C   C7        1.0  0.24887189276235108  0.31228405909999296  0.10166064591234593  1.0000
  C   C8        1.0  0.2511281079519236  0.8122840592386612  0.3983393540159616  1.0000
  C   C9        1.0  0.7473500902112058  0.7154957833471152  0.7664101354714465  1.0000
  C   C10       1.0  0.7526499097409588  0.21549578320844692  0.7335898642931917  1.0000
  C   C11       1.0  0.2526499090266841  0.28450421637537876  0.23358986436488413  1.0000
  C   C12       1.0  0.24735009059226082  0.784504216514047  0.2664101355532812  1.0000
  C   C13       1.0  0.7658598791729674  0.66675953418311  0.6618085927299112  1.0000
  C   C14       1.0  0.7341401207791972  0.16675953404444172  0.8381914070347272  1.0000
  C   C15       1.0  0.23414012006492252  0.33324046609422653  0.33819140710641954  1.0000
  C   C16       1.0  0.2658598795540224  0.8332404656780522  0.16180859281174587  1.0000
  C   C17       1.0  0.7979596230519033  0.5643673992861887  0.8252401900325818  1.0000
  C   C18       1.0  0.7020403769002612  0.06436739970236306  0.6747598097320565  1.0000
  C   C19       1.0  0.20204037618598672  0.4356326004363052  0.17475980980374903  1.0000
  C   C20       1.0  0.2979596234329583  0.9356326005749735  0.32524019011441635  1.0000
  C   C21       1.0  0.7790956218894042  0.6132204294969139  0.9298642667800495  1.0000
  C   C22       1.0  0.7209043780627604  0.11322042935824564  0.5701357329845888  1.0000
  C   C23       1.0  0.22090437844381547  0.38677957078042263  0.07013573306642343  1.0000
  C   C24       1.0  0.27909562117512954  0.8867795709190909  0.42986426685174195  1.0000
  C   C25       1.0  0.6322222634118723  0.7107510498044759  0.10097486611691667  1.0000
  C   C26       1.0  0.867777737098537  0.2107510502206502  0.39902513353171387  1.0000
  C   C27       1.0  0.36777773692134724  0.2892489499180181  0.8990251337295562  1.0000
  C   C28       1.0  0.1322222632346825  0.7892489500566864  0.600974866314759  1.0000
  C   C29       1.0  0.8710387851143255  0.7716824348076801  0.08171374809189226  1.0000
  C   C30       1.0  0.628961215396084  0.2716824346690117  0.4182862515567383  1.0000
  C   C31       1.0  0.1289612152188941  0.22831756491481395  0.9182862517545806  1.0000
  C   C32       1.0  0.3710387849371356  0.7283175650534822  0.5817137482897347  1.0000
  N   N1        1.0  0.7978629773169748  0.5411023827588437  0.5800447604552639  1.0000
  N   N2        1.0  0.7021370228308424  0.04110238262017547  0.9199552403370093  1.0000
  N   N3        1.0  0.20213702321189747  0.4588976175184928  0.41995524041884386  1.0000
  N   N4        1.0  0.2978629776980299  0.958897617657161  0.08004476053709855  1.0000
  N   N5        1.0  0.7271273819679935  0.740719904634549  0.005543814216527883  1.0000
  N   N6        1.0  0.772872617642739  0.24071990505072333  0.49445618644959544  1.0000
  N   N7        1.0  0.272872617465549  0.2592800950879449  0.9944561866474376  1.0000
  N   N8        1.0  0.22712738159515095  0.7592800952266132  0.5055438133867353  1.0000
  I   I1        1.0  0.0002622420459199235  0.6196819181094312  0.35394203165715404  1.0000
  I   I2        1.0  0.499737757573025  0.11968191797076293  0.14605796826101133  1.0000
  I   I3        1.0  0.9997377584829523  0.38031808216790536  0.6460579692169538  1.0000
  I   I4        1.0  0.5002622416648649  0.8803180823065736  0.8539420315753193  1.0000
  I   I5        1.0  0.6391580373787933  0.4657961384306018  0.20076648542504547  1.0000
  I   I6        1.0  0.8608419622319392  0.9657961385692702  0.2992335152410779  1.0000
  I   I7        1.0  0.3608419620547494  0.5342038612918921  0.7992335154389203  1.0000
  I   I8        1.0  0.13915803700595067  0.034203861153223866  0.7007664845952528  1.0000
  I   I9        1.0  0.4807769997319981  0.580691514915533  0.33428626705154346  1.0000
  I   I10       1.0  0.019222999886946843  0.08069151477686465  0.16571373286662194  1.0000
  I   I11       1.0  0.5192229995058918  0.41930848536180365  0.6657137327847873  1.0000
  I   I12       1.0  0.9807770004462727  0.9193084849456292  0.8342862669798509  1.0000
  I   I13       1.0  0.7976202351663385  0.3541603317110303  0.07238127000112587  1.0000
  I   I14       1.0  0.7023797653440711  0.854160331294856  0.42761872964750475  1.0000
  I   I15       1.0  0.2023797651668812  0.6458396685663063  0.927618729845347  1.0000
  I   I16       1.0  0.2976202349891485  0.14583966842763801  0.5723812701989682  1.0000
