data_image0
_chemical_formula_structural       H80C56N16O12S8
_chemical_formula_sum              "H80 C56 N16 O12 S8"
_cell_length_a       9.042770766301
_cell_length_b       13.148337061647206
_cell_length_c       14.813066651128478
_cell_angle_alpha    90.0
_cell_angle_beta     108.63118535010756
_cell_angle_gamma    90.0

_space_group_name_H-M_alt    "P 1"
_space_group_IT_number       1

loop_
  _space_group_symop_operation_xyz
  'x, y, z'

loop_
  _atom_site_type_symbol
  _atom_site_label
  _atom_site_symmetry_multiplicity
  _atom_site_fract_x
  _atom_site_fract_y
  _atom_site_fract_z
  _atom_site_occupancy
  H   H1        1.0  0.7325326248904153  0.1786102941375152  0.9539567685040147  1.0000
  H   H2        1.0  0.7674673743393785  0.6786102940748759  0.5460432311657136  1.0000
  H   H3        1.0  0.2674673749875869  0.8213897057372062  0.046043231575741174  1.0000
  H   H4        1.0  0.23253262553862375  0.32138970579984544  0.4539567689140424  1.0000
  H   H5        1.0  0.6582640809575961  0.5551415441950625  0.23896470620359114  1.0000
  H   H6        1.0  0.8417359194581886  0.055141544257701784  0.2610352937050287  1.0000
  H   H7        1.0  0.34173591892040617  0.4448584556796589  0.7610352938761648  1.0000
  H   H8        1.0  0.15826408041981366  0.9448584556170196  0.7389647063747272  1.0000
  H   H9        1.0  0.5243521494639349  0.4759162471011424  0.0835321255903084  1.0000
  H   H10       1.0  0.9756478509518497  0.975916247038503  0.4164678743183115  1.0000
  H   H11       1.0  0.4756478504140674  0.524083752773579  0.9164678744894474  1.0000
  H   H12       1.0  0.024352148926152468  0.024083752836218292  0.5835321257614443  1.0000
  H   H13       1.0  0.8434018069175767  0.22135216083632916  0.15813768489980373  1.0000
  H   H14       1.0  0.6565981923312181  0.7213521607736898  0.34186231478551976  1.0000
  H   H15       1.0  0.1565981929604256  0.7786478390383922  0.8418623151799521  1.0000
  H   H16       1.0  0.3434018075467841  0.2786478391010315  0.6581376852942362  1.0000
  H   H17       1.0  0.9763070083257889  0.3003026353437079  0.3146472454662485  1.0000
  H   H18       1.0  0.5236929909304352  0.8003026352810686  0.18535275489558986  1.0000
  H   H19       1.0  0.023692991552213383  0.6996973645310135  0.6853527546135073  1.0000
  H   H20       1.0  0.4763070089475671  0.19969736459365284  0.8146472451841661  1.0000
  H   H21       1.0  0.02493194273396897  0.5106041759138573  0.8359212970012825  1.0000
  H   H22       1.0  0.47506805659882173  0.01060417597649666  0.6640787025730948  1.0000
  H   H23       1.0  0.9750680571440332  0.489395823960864  0.16407870307847353  1.0000
  H   H24       1.0  0.5249319432717513  0.9893958238982247  0.3359212968301463  1.0000
  H   H25       1.0  0.9598454709110028  0.4263311286984717  0.43045377536334456  1.0000
  H   H26       1.0  0.5401545295047819  0.9263311286358323  0.06954622454527529  1.0000
  H   H27       1.0  0.04015452896699951  0.573668871936802  0.5695462247164114  1.0000
  H   H28       1.0  0.4598454703732203  0.07366887123888899  0.9304537755344806  1.0000
  H   H29       1.0  0.8499873958009629  0.5351479899708702  0.399344002343177  1.0000
  H   H30       1.0  0.6500126046148217  0.03514799003350953  0.10065599756544286  1.0000
  H   H31       1.0  0.15001260524402912  0.4648520099038511  0.6006559979598752  1.0000
  H   H32       1.0  0.34998739526318057  0.9648520098412118  0.899344002514313  1.0000
  H   H33       1.0  0.7272105400419901  0.6313464532495064  0.842995778385341  1.0000
  H   H34       1.0  0.7727894603547936  0.13134645331214573  0.6570042215076836  1.0000
  H   H35       1.0  0.2727894598285828  0.36865354738576744  0.15700422101790007  1.0000
  H   H36       1.0  0.22721053952320877  0.868653547323128  0.34299577857207225  1.0000
  H   H37       1.0  0.9198727516016986  0.646029071978769  0.9217176092795765  1.0000
  H   H38       1.0  0.5801272476280952  0.14602907204140841  0.5782823903901518  1.0000
  H   H39       1.0  0.08012724826887443  0.35397092789595225  0.07828239012366464  1.0000
  H   H40       1.0  0.419872752249907  0.8539709278333129  0.4217176096896041  1.0000
  H   H41       1.0  0.7629149369177141  0.6146370763169017  0.9668512628339513  1.0000
  H   H42       1.0  0.7370850623120797  0.11463707637954097  0.533148736835777  1.0000
  H   H43       1.0  0.23708506296028817  0.3853629235578197  0.033148737245804645  1.0000
  H   H44       1.0  0.2629149375659225  0.8853629234951804  0.46685126324397896  1.0000
  H   H45       1.0  0.19270730967670438  0.31011455295694845  0.8483068432956695  1.0000
  H   H46       1.0  0.3072926908305053  0.810114552894309  0.6516931571785188  1.0000
  H   H47       1.0  0.8072926902012979  0.6898854469177729  0.15169315678408643  1.0000
  H   H48       1.0  0.692707309047497  0.18988544698041226  0.34830684290123715  1.0000
  H   H49       1.0  0.07367657966336973  0.3541763698455566  0.7356279190019427  1.0000
  H   H50       1.0  0.4263234196768501  0.8541763697829173  0.7643720812489494  1.0000
  H   H51       1.0  0.9263234202146325  0.6458236300291648  0.2643720810778133  1.0000
  H   H52       1.0  0.5736765802011521  0.14582363009180407  0.23562791883080658  1.0000
  H   H53       1.0  0.042524484342447426  0.23034288791046387  0.7759830204846315  1.0000
  H   H54       1.0  0.45747551499777245  0.7303428878478245  0.7240169797662603  1.0000
  H   H55       1.0  0.9574755155355549  0.7696571119642576  0.22401697959512437  1.0000
  H   H56       1.0  0.5425244848802299  0.26965711202689685  0.2759830203134955  1.0000
  H   H57       1.0  0.9653141595677008  0.010922017691415131  0.10451473195987263  1.0000
  H   H58       1.0  0.5346858408480837  0.5109220176287759  0.3954852679487472  1.0000
  H   H59       1.0  0.034685840310301266  0.9890779821833062  0.8954852681198833  1.0000
  H   H60       1.0  0.4653141590224894  0.48907798224594556  0.6045147314544939  1.0000
  H   H61       1.0  0.0911123524942306  0.028441021723636266  0.22704879682069914  1.0000
  H   H62       1.0  0.40888764686499024  0.5284410216609969  0.2729512034457881  1.0000
  H   H63       1.0  0.9088876473837717  0.971558978151085  0.7729512032590569  1.0000
  H   H64       1.0  0.591112353013012  0.4715589782137244  0.7270487966339678  1.0000
  H   H65       1.0  0.06362634199113505  0.9037237678261483  0.1744777707714771  1.0000
  H   H66       1.0  0.4363736573680858  0.4037237678887876  0.32552222949501014  1.0000
  H   H67       1.0  0.9363736578868672  0.09627623204857308  0.8255222293082789  1.0000
  H   H68       1.0  0.5636263425099165  0.5962762319859338  0.6744777705847459  1.0000
  H   H69       1.0  0.29746985633482304  0.1527370283089176  0.05531224336394457  1.0000
  H   H70       1.0  0.20253014301696853  0.6527370282462782  0.4446877562260278  1.0000
  H   H71       1.0  0.7025301435431792  0.8472629715658037  0.9446877567158114  1.0000
  H   H72       1.0  0.7974698568610336  0.34726297162844305  0.5553122438537281  1.0000
  H   H73       1.0  0.21852254883211078  0.1772596746700694  0.14979297049699675  1.0000
  H   H74       1.0  0.28147745168667065  0.6772596746074301  0.350207029316272  1.0000
  H   H75       1.0  0.7814774510458914  0.822740325204652  0.8502070295827591  1.0000
  H   H76       1.0  0.7185225481913315  0.32274032526729124  0.649792970763484  1.0000
  H   H77       1.0  0.08898147692122432  0.14006517640712837  0.03375855350084363  1.0000
  H   H78       1.0  0.41101852243799647  0.640065176344489  0.46624144676564355  1.0000
  H   H79       1.0  0.9110185229567779  0.859934823467593  0.9662414465789123  1.0000
  H   H80       1.0  0.5889814774400058  0.3599348235302323  0.5337585533141124  1.0000
  C   C1        1.0  0.6734839283370195  0.34269660101301874  0.11223566010504464  1.0000
  C   C2        1.0  0.8265160720787651  0.8426966009503795  0.3877643398035752  1.0000
  C   C3        1.0  0.3265160715409826  0.6573033988617025  0.8877643399747113  1.0000
  C   C4        1.0  0.17348392779923721  0.15730339892434192  0.6122356602761808  1.0000
  C   C5        1.0  0.8226661770275171  0.43143133260148897  0.29035337188999927  1.0000
  C   C6        1.0  0.6773338233956967  0.9314313325388496  0.2096466286951355  1.0000
  C   C7        1.0  0.17733382401747494  0.5685686672732323  0.709646628413053  1.0000
  C   C8        1.0  0.32266617648230556  0.06856866733587169  0.7903533713846204  1.0000
  C   C9        1.0  0.6970711852719518  0.48108219011595366  0.22223944984586497  1.0000
  C   C10       1.0  0.802928815151262  0.9810821900533143  0.27776055073926975  1.0000
  C   C11       1.0  0.3029288146060505  0.5189178097587678  0.777760550233891  1.0000
  C   C12       1.0  0.19707118472674018  0.018917809821407065  0.7222394493404861  1.0000
  C   C13       1.0  0.6224414836240788  0.4371924702757699  0.13433391019060517  1.0000
  C   C14       1.0  0.8775585167917058  0.9371924702131307  0.3656660897180147  1.0000
  C   C15       1.0  0.3775585162539234  0.5628075295989514  0.8656660898891507  1.0000
  C   C16       1.0  0.12244148425328631  0.06280752966159077  0.6343339105850376  1.0000
  C   C17       1.0  0.8401415184825379  0.4913230585519147  0.8982310089231835  1.0000
  C   C18       1.0  0.6598584819142457  0.9913230584892753  0.601768990969841  1.0000
  C   C19       1.0  0.15985848139546427  0.5086769413228066  0.10176899115657234  1.0000
  C   C20       1.0  0.34014151913074636  0.008676941385445993  0.39823100933321126  1.0000
  C   C21       1.0  0.8025458489271519  0.29408356827715704  0.176778009465152  1.0000
  C   C22       1.0  0.6974541503216429  0.7940835682145176  0.32322199022017156  1.0000
  C   C23       1.0  0.19745415095085042  0.7059164315975642  0.8232219906146039  1.0000
  C   C24       1.0  0.30254584955635927  0.20591643166020368  0.6767780098595845  1.0000
  C   C25       1.0  0.8766374689390172  0.3379921695925292  0.26433264693888864  1.0000
  C   C26       1.0  0.6233625303097775  0.83799216952989  0.23566735274643488  1.0000
  C   C27       1.0  0.12336253093898499  0.6620078302821921  0.7356673531408674  1.0000
  C   C28       1.0  0.3766374695682247  0.16200783034483143  0.7643326473333211  1.0000
  C   C29       1.0  0.7754590476886017  0.3264446271703867  0.9150768759115931  1.0000
  C   C30       1.0  0.724540951541192  0.8264446278682998  0.5849231237581352  1.0000
  C   C31       1.0  0.22454095218940048  0.6735553727043346  0.08492312416816282  1.0000
  C   C32       1.0  0.2754590483368102  0.17355537276697397  0.4150768763216208  1.0000
  C   C33       1.0  0.9508029632776072  0.4571646073428966  0.8575916360842821  1.0000
  C   C34       1.0  0.5491970371191767  0.9571646072802573  0.6424083638087426  1.0000
  C   C35       1.0  0.04919703776738506  0.5428353932923772  0.14240836421877018  1.0000
  C   C36       1.0  0.4508029627588256  0.0428353933550165  0.3575916362710134  1.0000
  C   C37       1.0  0.9622085253208246  0.35235137632071056  0.8439916283449921  1.0000
  C   C38       1.0  0.5377914750759593  0.8523513762580712  0.6560083715480327  1.0000
  C   C39       1.0  0.03779147454974861  0.6476486235540109  0.15600837105824902  1.0000
  C   C40       1.0  0.462208524802043  0.14764862361665015  0.3439916285317234  1.0000
  C   C41       1.0  0.8120303725016751  0.6021974241211046  0.9090683650316965  1.0000
  C   C42       1.0  0.6879696267281188  0.10219742418374388  0.5909316346380318  1.0000
  C   C43       1.0  0.1879696273763271  0.39780257575361677  0.09093163504805937  1.0000
  C   C44       1.0  0.3120303731424543  0.8978025756909775  0.40906836476520936  1.0000
  C   C45       1.0  0.07306650792307463  0.3092081136145342  0.7979672021243819  1.0000
  C   C46       1.0  0.42693349258413504  0.8092081135518948  0.7020327983498064  1.0000
  C   C47       1.0  0.9269334931219174  0.6907918870207396  0.2020327981786703  1.0000
  C   C48       1.0  0.5730665072938671  0.19079188708337894  0.29796720172994956  1.0000
  C   C49       1.0  0.0702793955139889  0.9851996628368435  0.16083152942326298  1.0000
  C   C50       1.0  0.4297206038452319  0.48519966289948274  0.33916847084322427  1.0000
  C   C51       1.0  0.9297206043640134  0.014800337037877915  0.8391684706564929  1.0000
  C   C52       1.0  0.5702793960327703  0.5148003369752386  0.6608315292365318  1.0000
  C   C53       1.0  0.20609003952083227  0.1317162833505149  0.08570967036717456  1.0000
  C   C54       1.0  0.2939099598309593  0.6317162832878755  0.4142903292227978  1.0000
  C   C55       1.0  0.79390996035717  0.868283717284759  0.9142903297125814  1.0000
  C   C56       1.0  0.7060900400470429  0.3682837165868457  0.5857096708569581  1.0000
  N   N1        1.0  0.7504685689151146  0.4251306278346748  0.927338804356639  1.0000
  N   N2        1.0  0.749531431481669  0.9251306277720355  0.5726611955363857  1.0000
  N   N3        1.0  0.24953143096288755  0.5748693720400465  0.07266119572311694  1.0000
  N   N4        1.0  0.2504685695633231  0.07486937210268586  0.4273388047666667  1.0000
  N   N5        1.0  0.8734476306344912  0.28586250279235886  0.8729246128451053  1.0000
  N   N6        1.0  0.6265523697622926  0.7858625027297196  0.6270753870479194  1.0000
  N   N7        1.0  0.12655236924351115  0.7141374970823624  0.1270753872346507  1.0000
  N   N8        1.0  0.3734476301082804  0.2141374971450018  0.3729246123553216  1.0000
  N   N9        1.0  0.6929685133833513  0.25472274511195253  0.9486386293870116  1.0000
  N   N10       1.0  0.8070314870134323  0.7547227450493131  0.5513613705060131  1.0000
  N   N11       1.0  0.3070314864946509  0.7452772547627687  0.05136137069274443  1.0000
  N   N12       1.0  0.19296851402413054  0.24527725482540816  0.44863862912052427  1.0000
  N   N13       1.0  0.894934090531529  0.4727207532677392  0.37749297480713756  1.0000
  N   N14       1.0  0.605065909891685  0.9727207532050999  0.12250702577799721  1.0000
  N   N15       1.0  0.10506590934647336  0.5272792466069821  0.6225070252726184  1.0000
  N   N16       1.0  0.3949340899863173  0.027279246669621462  0.8774929743017587  1.0000
  O   O1        1.0  0.532834178310775  0.1774697445813479  0.03255510225619473  1.0000
  O   O2        1.0  0.9671658221050097  0.6774697445187086  0.46744489765242514  1.0000
  O   O3        1.0  0.46716582156722725  0.8225302552933734  0.9674448978235612  1.0000
  O   O4        1.0  0.032834177772992613  0.32253025535601276  0.5325551024273307  1.0000
  O   O5        1.0  0.4432632274294019  0.34271654421943115  0.951838395082277  1.0000
  O   O6        1.0  0.05673677307037858  0.8427165441567918  0.5481616047153965  1.0000
  O   O7        1.0  0.5567367724486003  0.6572834556552902  0.04816160499747892  1.0000
  O   O8        1.0  0.9432632268076235  0.1572834557179295  0.4518383953643595  1.0000
  O   O9        1.0  0.20267993924453745  0.9400638523371959  0.02889865013151613  1.0000
  O   O10       1.0  0.29732006010725415  0.4400638523998353  0.4711013494584562  1.0000
  O   O11       1.0  0.7973200606334647  0.059936147537525394  0.9711013499482398  1.0000
  O   O12       1.0  0.702679939770748  0.5599361474748861  0.5288986506212997  1.0000
  S   S1        1.0  0.5701285828066394  0.27973735939039085  0.00780893948675348  1.0000
  S   S2        1.0  0.9298714164421555  0.7797373593277516  0.49219106019857006  1.0000
  S   S3        1.0  0.429871417071363  0.7202626404843305  0.9921910605930024  1.0000
  S   S4        1.0  0.0701285834284175  0.22026264054696984  0.507808939204671  1.0000
  S   S5        1.0  0.23778484604739866  0.0006577303243332418  0.12152735028639688  1.0000
  S   S6        1.0  0.2622151544713827  0.5006577310222464  0.3784726495268718  1.0000
  S   S7        1.0  0.7622151538306036  0.9993422695503882  0.8784726497933592  1.0000
  S   S8        1.0  0.7377848453991903  0.4993422696130274  0.6215273498763693  1.0000
