data_image0
_chemical_formula_structural       H20C20N4O8S4
_chemical_formula_sum              "H20 C20 N4 O8 S4"
_cell_length_a       11.242435404007379
_cell_length_b       12.192858731398239
_cell_length_c       4.330978794302805
_cell_angle_alpha    90.0
_cell_angle_beta     90.0
_cell_angle_gamma    90.0

_space_group_name_H-M_alt    "P 1"
_space_group_IT_number       1

loop_
  _space_group_symop_operation_xyz
  'x, y, z'

loop_
  _atom_site_type_symbol
  _atom_site_label
  _atom_site_symmetry_multiplicity
  _atom_site_fract_x
  _atom_site_fract_y
  _atom_site_fract_z
  _atom_site_occupancy
  H   H1        1.0  0.30418426943160537  0.014288522801577741  0.7197080216833011  1.0000
  H   H2        1.0  0.6958157302119434  0.9857114770837453  0.7197080216833011  1.0000
  H   H3        1.0  0.195815730390169  0.5142885223341632  0.2802919796321511  1.0000
  H   H4        1.0  0.8041842692533798  0.4857114775511599  0.2802919796321511  1.0000
  H   H5        1.0  0.18343840688334243  0.13396076391780606  0.06993211566826808  1.0000
  H   H6        1.0  0.8165615927602062  0.8660392359675171  0.06993211566826808  1.0000
  H   H7        1.0  0.31656159293843195  0.6339607642705437  0.9300678833382371  1.0000
  H   H8        1.0  0.6834384075946038  0.3660392364349316  0.9300678833382371  1.0000
  H   H9        1.0  0.25039420097504633  0.3260985120545259  0.16978724092745756  1.0000
  H   H10       1.0  0.7496057986685024  0.6739014886509495  0.16978724092745756  1.0000
  H   H11       1.0  0.24960579884672807  0.8260985115871113  0.8302127580790476  1.0000
  H   H12       1.0  0.7503942007968206  0.17390148829821178  0.8302127580790476  1.0000
  H   H13       1.0  0.43449877935334175  0.39649767839519623  0.8994338889685284  1.0000
  H   H14       1.0  0.565501221179694  0.6035023214901268  0.8994338889685284  1.0000
  H   H15       1.0  0.06550122135791964  0.896497678747934  0.1005661100379768  1.0000
  H   H16       1.0  0.9344987791751161  0.10350232113738916  0.1005661100379768  1.0000
  H   H17       1.0  0.560761356721055  0.40960446356514746  0.4191230241967071  1.0000
  H   H18       1.0  0.4392386429224938  0.5903955363201756  0.4191230241967071  1.0000
  H   H19       1.0  0.9392386427442682  0.9096044639178852  0.580876974809798  1.0000
  H   H20       1.0  0.060761356899280576  0.09039553596743799  0.580876974809798  1.0000
  C   C1        1.0  0.4321016813019361  0.14089859136775137  0.6279322548467456  1.0000
  C   C2        1.0  0.5678983192310997  0.8591014085175718  0.6279322548467456  1.0000
  C   C3        1.0  0.06789831940932528  0.640898591720489  0.3720677464687065  1.0000
  C   C4        1.0  0.9321016811237104  0.3591014081648341  0.3720677464687065  1.0000
  C   C5        1.0  0.33034771973661253  0.0985759268173008  0.7665405021994406  1.0000
  C   C6        1.0  0.6696522807964232  0.9014240730680224  0.7665405021994406  1.0000
  C   C7        1.0  0.16965228097464888  0.5985759271700385  0.23345949680706457  1.0000
  C   C8        1.0  0.8303477195583868  0.40142407271528463  0.23345949680706457  1.0000
  C   C9        1.0  0.2635915443146499  0.16529451332114947  0.9607625314336915  1.0000
  C   C10       1.0  0.7364084553288989  0.8347054865641735  0.9607625314336915  1.0000
  C   C11       1.0  0.2364084555071245  0.665294512853735  0.039237469881760564  1.0000
  C   C12       1.0  0.7635915450259113  0.3347054870315882  0.039237469881760564  1.0000
  C   C13       1.0  0.3000164162649065  0.27323612562006205  0.013848772494314486  1.0000
  C   C14       1.0  0.6999835833786423  0.7267638742652611  0.013848772494314486  1.0000
  C   C15       1.0  0.19998358355686793  0.7732361259727997  0.9861512288211377  1.0000
  C   C16       1.0  0.8000164169761678  0.2267638747326756  0.9861512288211377  1.0000
  C   C17       1.0  0.4008143616634688  0.3136061635942126  0.8707508577416351  1.0000
  C   C18       1.0  0.59918563798008  0.6863938362911105  0.8707508577416351  1.0000
  C   C19       1.0  0.09918563815830558  0.8136061639469503  0.1292491412648701  1.0000
  C   C20       1.0  0.9008143623747302  0.1863938359383728  0.1292491412648701  1.0000
  N   N1        1.0  0.4642734890110625  0.2474813902526009  0.6786051720839977  1.0000
  N   N2        1.0  0.5357265115219734  0.7525186096327222  0.6786051720839977  1.0000
  N   N3        1.0  0.0357265117001989  0.7474813897851864  0.3213948269225074  1.0000
  N   N4        1.0  0.9642734888328368  0.25251861010013676  0.3213948269225074  1.0000
  O   O1        1.0  0.5608813663054124  0.28132868062899596  0.5324772827411732  1.0000
  O   O2        1.0  0.4391186333381364  0.7186713192563271  0.5324772827411732  1.0000
  O   O3        1.0  0.9391186340493979  0.7813286801615814  0.46752271626533204  1.0000
  O   O4        1.0  0.06088136648363798  0.21867131972374168  0.46752271626533204  1.0000
  O   O5        1.0  0.564061681665486  0.4865225842996153  0.33265008406302343  1.0000
  O   O6        1.0  0.4359383188675498  0.5134774155857078  0.33265008406302343  1.0000
  O   O7        1.0  0.9359383186893242  0.9865225846523529  0.6673499149434817  1.0000
  O   O8        1.0  0.0640616818437116  0.013477416053122379  0.6673499149434817  1.0000
  S   S1        1.0  0.5337626336604088  0.07939823640431716  0.37255899339025655  1.0000
  S   S2        1.0  0.46623736598314003  0.9206017634810059  0.37255899339025655  1.0000
  S   S3        1.0  0.9662373658049145  0.5793982359369027  0.6274410056162486  1.0000
  S   S4        1.0  0.033762633838634315  0.4206017639484205  0.6274410056162486  1.0000
