data_image0
_chemical_formula_structural       H8C16N2F8I2
_chemical_formula_sum              "H8 C16 N2 F8 I2"
_cell_length_a       4.938884859447816
_cell_length_b       7.614176783438902
_cell_length_c       13.119458190544938
_cell_angle_alpha    80.21436692615877
_cell_angle_beta     81.98565947609653
_cell_angle_gamma    71.7155843122957

_space_group_name_H-M_alt    "P 1"
_space_group_IT_number       1

loop_
  _space_group_symop_operation_xyz
  'x, y, z'

loop_
  _atom_site_type_symbol
  _atom_site_label
  _atom_site_symmetry_multiplicity
  _atom_site_fract_x
  _atom_site_fract_y
  _atom_site_fract_z
  _atom_site_occupancy
  H   H1        1.0  0.2568198802017393  0.16885355129759946  0.42288518874228864  1.0000
  H   H2        1.0  0.743180119864816  0.8311464493802142  0.5771148111554264  1.0000
  H   H3        1.0  0.9981095045553742  0.05534292448654923  0.5858704724052035  1.0000
  H   H4        1.0  0.001890496174324646  0.9446570748085408  0.41412952749068416  1.0000
  H   H5        1.0  0.9682394148737097  0.18860976216112463  0.7484254794625  1.0000
  H   H6        1.0  0.031760584986251096  0.8113902383260829  0.25157452121197693  1.0000
  H   H7        1.0  0.1990660418278569  0.4335869224132621  0.752502028405343  1.0000
  H   H8        1.0  0.8009339580321039  0.5664130780739456  0.24749797226913398  1.0000
  C   C1        1.0  0.3773430764817681  0.364746057122589  0.4949492846544878  1.0000
  C   C2        1.0  0.6226569242479306  0.6352539421725011  0.5050507152414  1.0000
  C   C3        1.0  0.2424339866436576  0.22437465255522437  0.4953697495829111  1.0000
  C   C4        1.0  0.7575660113971708  0.7756253481279551  0.504630250310547  1.0000
  C   C5        1.0  0.10015593184210311  0.16342323779013268  0.585169949668756  1.0000
  C   C6        1.0  0.8998440688875956  0.8365767615049575  0.4148300502271317  1.0000
  C   C7        1.0  0.08373217863456972  0.23895923121221158  0.6786398284378916  1.0000
  C   C8        1.0  0.916267822095129  0.7610407680828785  0.32136017145799617  1.0000
  C   C9        1.0  0.21070252637544296  0.37432383687089305  0.6815208874555184  1.0000
  C   C10       1.0  0.7892974743542559  0.625676162424197  0.31847911244036936  1.0000
  C   C11       1.0  0.3602920714390029  0.4418459820485818  0.5902927138391538  1.0000
  C   C12       1.0  0.639707929290696  0.5581540172465083  0.40970728605673395  1.0000
  C   C13       1.0  0.4663576461145529  0.23843018401730043  0.05651341846255637  1.0000
  C   C14       1.0  0.5336423539520024  0.7615698166605133  0.9434865814351588  1.0000
  C   C15       1.0  0.5124974544450202  0.027300772572080315  0.05401651303378023  1.0000
  C   C16       1.0  0.4875025462846789  0.9726992267230098  0.9459834868621075  1.0000
  N   N1        1.0  0.5169432170287503  0.4243482429180661  0.4070377779556416  1.0000
  N   N2        1.0  0.4830567830378051  0.5756517577597475  0.5929622219420735  1.0000
  F   F1        1.0  0.6635364059682267  0.29571214357509507  0.9864373532081266  1.0000
  F   F2        1.0  0.33646359207260157  0.7042878571080845  0.013562646685331543  1.0000
  F   F3        1.0  0.20109741251031982  0.33784316351645205  0.02704518410911227  1.0000
  F   F4        1.0  0.7989025882193792  0.662156835778638  0.9729548157867755  1.0000
  F   F5        1.0  0.7782587094014447  0.9304678969466135  0.08443853184260675  1.0000
  F   F6        1.0  0.2217412906651106  0.0695321037312002  0.9155614680551083  1.0000
  F   F7        1.0  0.3128797115166123  0.9739657419091873  0.12534235577800146  1.0000
  F   F8        1.0  0.6871202883433486  0.026034258578020445  0.8746576448964754  1.0000
  I   I1        1.0  0.5034007601706997  0.296809816889996  0.21119976980031016  1.0000
  I   I2        1.0  0.49659923989585564  0.7031901837878177  0.788800230097405  1.0000
