data_image0
_chemical_formula_structural       H16C28N4F8I2
_chemical_formula_sum              "H16 C28 N4 F8 I2"
_cell_length_a       5.74524167640981
_cell_length_b       9.953423545473001
_cell_length_c       12.066440464281138
_cell_angle_alpha    80.76827482818364
_cell_angle_beta     86.41148651090239
_cell_angle_gamma    82.21315774577886

_space_group_name_H-M_alt    "P 1"
_space_group_IT_number       1

loop_
  _space_group_symop_operation_xyz
  'x, y, z'

loop_
  _atom_site_type_symbol
  _atom_site_label
  _atom_site_symmetry_multiplicity
  _atom_site_fract_x
  _atom_site_fract_y
  _atom_site_fract_z
  _atom_site_occupancy
  H   H1        1.0  0.9877413955160256  0.5619122573389989  0.39634776736324656  1.0000
  H   H2        1.0  0.012258604301806612  0.43808774246949705  0.6036522324879977  1.0000
  H   H3        1.0  0.9232989714678081  0.7063003510663663  0.20974273852399763  1.0000
  H   H4        1.0  0.0767010283500241  0.2936996487421296  0.7902572613272466  1.0000
  H   H5        1.0  0.7857748744761235  0.19656038572440646  0.6709695891401993  1.0000
  H   H6        1.0  0.2142251251071735  0.8034396150966677  0.3290304107185495  1.0000
  H   H7        1.0  0.17754942264172904  0.998140826139621  0.6342747873257385  1.0000
  H   H8        1.0  0.8224505771761031  0.0018591736688751217  0.3657252125255057  1.0000
  H   H9        1.0  0.5200916383442109  0.02097880933003306  0.7429026360828836  1.0000
  H   H10       1.0  0.4799083614736212  0.9790211904784628  0.2570973637683607  1.0000
  H   H11       1.0  0.10233923394115607  0.14555952564358624  0.4503029163272965  1.0000
  H   H12       1.0  0.8976607658766761  0.8544404741649096  0.5496970835239476  1.0000
  H   H13       1.0  0.5969524657804702  0.676108572350792  0.09344561798688646  1.0000
  H   H14       1.0  0.4030475339641376  0.32389142729096554  0.9065543827046775  1.0000
  H   H15       1.0  0.33076394105601503  0.5013503564467319  0.16090664105313074  1.0000
  H   H16       1.0  0.6692360587618171  0.4986496433617639  0.8390933587981136  1.0000
  C   C1        1.0  0.9100586008169248  0.1672078292616989  0.0793774055460364  1.0000
  C   C2        1.0  0.08994140074196104  0.8327921705442114  0.9206225943061064  1.0000
  C   C3        1.0  0.05636996848353517  0.03671794911125109  0.04241131845652033  1.0000
  C   C4        1.0  0.9436300328408155  0.9632820517072375  0.957588681403127  1.0000
  C   C5        1.0  0.40266624872799267  0.25431921385953116  0.4542979495580441  1.0000
  C   C6        1.0  0.5973337510166152  0.7456807857822263  0.5457020511335198  1.0000
  C   C7        1.0  0.6992474099292755  0.44587192154011096  0.3844149354529171  1.0000
  C   C8        1.0  0.30075258988855663  0.5541280782683848  0.6155850643983272  1.0000
  C   C9        1.0  0.5083007972640461  0.4283747607390751  0.3168671731595312  1.0000
  C   C10       1.0  0.49169920255378596  0.5716252390694208  0.683132826691713  1.0000
  C   C11       1.0  0.5977362548343641  0.2704626360851069  0.5194364918878382  1.0000
  C   C12       1.0  0.4022637447489329  0.7295373647359672  0.4805635079709107  1.0000
  C   C13       1.0  0.8474814067340635  0.5485144023758746  0.3436423114911174  1.0000
  C   C14       1.0  0.15251859482482236  0.45148559743003575  0.6563576883610253  1.0000
  C   C15       1.0  0.809902226108776  0.6281048464549535  0.2410298814492801  1.0000
  C   C16       1.0  0.19009777340129658  0.37189515419938246  0.7589701192497884  1.0000
  C   C17       1.0  0.6373543641776804  0.1831309765233877  0.6237959044376966  1.0000
  C   C18       1.0  0.36264563540561645  0.8168690242976864  0.37620409542105243  1.0000
  C   C19       1.0  0.29415971390905493  0.07401064456515746  0.6004777684419882  1.0000
  C   C20       1.0  0.7058402875766067  0.9259893550740147  0.399522232250474  1.0000
  C   C21       1.0  0.489360496324479  0.08729058159145768  0.6629870226075751  1.0000
  C   C22       1.0  0.5106395034933531  0.9127094182170383  0.3370129772436692  1.0000
  C   C23       1.0  0.2514478325726094  0.15482341315713163  0.49865186237269443  1.0000
  C   C24       1.0  0.7485521687517414  0.845176587661357  0.5013481374869531  1.0000
  C   C25       1.0  0.623476739216896  0.6107395634272735  0.1743641046222746  1.0000
  C   C26       1.0  0.37652326060093616  0.3892604363812224  0.8256358952289696  1.0000
  C   C27       1.0  0.47540757468081174  0.5139892625235475  0.21100839942858857  1.0000
  C   C28       1.0  0.5245924251370204  0.4860107372849484  0.7889916004226557  1.0000
  N   N1        1.0  0.36462866731149257  0.3329654537185724  0.353640146770112  1.0000
  N   N2        1.0  0.6353713325063396  0.6670345460899235  0.6463598530811323  1.0000
  N   N3        1.0  0.7408924289052987  0.36639668265980163  0.48381944344810573  1.0000
  N   N4        1.0  0.25910757091253345  0.6336033171486942  0.5161805564031385  1.0000
  F   F1        1.0  0.8679375300455774  0.26508193850444456  0.9863991118609964  1.0000
  F   F2        1.0  0.13206246953771963  0.7349180623166296  0.013600887997752518  1.0000
  F   F3        1.0  0.10161368011624453  0.9426360103124026  0.13758516961024544  1.0000
  F   F4        1.0  0.8983863197015877  0.057363989496093094  0.8624148302409989  1.0000
  F   F5        1.0  0.26523333600523297  0.07426664249023406  0.9950589115570155  1.0000
  F   F6        1.0  0.7347666638125991  0.9257333573182618  0.0049410882942286976  1.0000
  F   F7        1.0  0.695968125629296  0.13549998382570264  0.12470986467437173  1.0000
  F   F8        1.0  0.30403187418853606  0.8645000159827934  0.8752901351768726  1.0000
  I   I1        1.0  0.09764676307754037  0.24760450980126106  0.20175521048895412  1.0000
  I   I2        1.0  0.9023532365057567  0.7523954910198131  0.7982447893697948  1.0000
