data_image0
_chemical_formula_structural       H8C16N2F8I2
_chemical_formula_sum              "H8 C16 N2 F8 I2"
_cell_length_a       4.958358284694103
_cell_length_b       7.649375451625666
_cell_length_c       13.121563600142874
_cell_angle_alpha    79.94469245839275
_cell_angle_beta     82.43448789689114
_cell_angle_gamma    71.80824555608858

_space_group_name_H-M_alt    "P 1"
_space_group_IT_number       1

loop_
  _space_group_symop_operation_xyz
  'x, y, z'

loop_
  _atom_site_type_symbol
  _atom_site_label
  _atom_site_symmetry_multiplicity
  _atom_site_fract_x
  _atom_site_fract_y
  _atom_site_fract_z
  _atom_site_occupancy
  H   H1        1.0  0.26161552296707413  0.16637432069517583  0.4253040742781029  1.0000
  H   H2        1.0  0.7383844773142841  0.8336256794649224  0.5746959253145346  1.0000
  H   H3        1.0  0.9995290506531707  0.05757058716568103  0.5878403004900724  1.0000
  H   H4        1.0  0.00047094943485996175  0.9424294127963277  0.4121596998791725  1.0000
  H   H5        1.0  0.9633354984726545  0.1963640931689226  0.748428631594037  1.0000
  H   H6        1.0  0.03666450161537632  0.8036359067930862  0.2515713687752077  1.0000
  H   H7        1.0  0.19212486360796346  0.4417377083055568  0.751016817374966  1.0000
  H   H8        1.0  0.807875136673395  0.5582622918545415  0.24898318221767146  1.0000
  C   C1        1.0  0.37845692426498895  0.3646296814630925  0.49574823887561836  1.0000
  C   C2        1.0  0.621543073800808  0.635370318515675  0.5042517614866439  1.0000
  C   C3        1.0  0.2446048440904285  0.22419372339386742  0.49698514163577373  1.0000
  C   C4        1.0  0.7553951559976023  0.7758062765681413  0.5030148587334712  1.0000
  C   C5        1.0  0.10030123983476744  0.16592682072198137  0.5864994058144234  1.0000
  C   C6        1.0  0.8996987582310294  0.834073179256786  0.41350059454783883  1.0000
  C   C7        1.0  0.08042887513115787  0.24454111654340036  0.6788420574330092  1.0000
  C   C8        1.0  0.919571124956873  0.7554588834186085  0.3211579429362356  1.0000
  C   C9        1.0  0.20618321404052306  0.3801567119715552  0.6809277879745703  1.0000
  C   C10       1.0  0.7938167860475077  0.6198432879904535  0.3190722123946745  1.0000
  C   C11       1.0  0.3580282783951503  0.4448481921126596  0.5899734098790531  1.0000
  C   C12       1.0  0.6419717218862081  0.5551518080474386  0.4100265897135843  1.0000
  C   C13       1.0  0.4704505388957675  0.23594202833198197  0.05669530685358762  1.0000
  C   C14       1.0  0.5295494611922634  0.7640579716300269  0.9433046935156572  1.0000
  C   C15       1.0  0.5115107033833081  0.026332350201881523  0.05426765010741413  1.0000
  C   C16       1.0  0.4884892968980501  0.9736676499582168  0.9457323494852233  1.0000
  N   N1        1.0  0.520190474657174  0.42128871569063453  0.4080620786422774  1.0000
  N   N2        1.0  0.4798095254308569  0.5787112842713742  0.5919379217269675  1.0000
  F   F1        1.0  0.670386932803064  0.2911311729255  0.9882594357329519  1.0000
  F   F2        1.0  0.3296130672849667  0.7088688270365087  0.01174056463629284  1.0000
  F   F3        1.0  0.20858692804662482  0.3378369222070938  0.02548891545036717  1.0000
  F   F4        1.0  0.791413072041406  0.6621630777549149  0.9745110849188776  1.0000
  F   F5        1.0  0.7741295659551283  0.9271656013424187  0.0864231221545753  1.0000
  F   F6        1.0  0.22587043432622994  0.07283439881767949  0.9135768774380622  1.0000
  F   F7        1.0  0.30863818226975964  0.9752620918657566  0.1238463454468468  1.0000
  F   F8        1.0  0.6913618157960371  0.02473790811301079  0.8761536549154155  1.0000
  I   I1        1.0  0.5054241564576577  0.29189456674278935  0.21192914621249734  1.0000
  I   I2        1.0  0.4945758436303732  0.7081054332192195  0.7880708541567475  1.0000
