data_image0
_chemical_formula_structural       H32C28N32O12Br8
_chemical_formula_sum              "H32 C28 N32 O12 Br8"
_cell_length_a       7.124997504569848
_cell_length_b       9.655397260725884
_cell_length_c       16.950233463642192
_cell_angle_alpha    90.0
_cell_angle_beta     90.0
_cell_angle_gamma    90.0

_space_group_name_H-M_alt    "P 1"
_space_group_IT_number       1

loop_
  _space_group_symop_operation_xyz
  'x, y, z'

loop_
  _atom_site_type_symbol
  _atom_site_label
  _atom_site_symmetry_multiplicity
  _atom_site_fract_x
  _atom_site_fract_y
  _atom_site_fract_z
  _atom_site_occupancy
  H   H1        1.0  0.4867244680121984  0.7163138639704234  0.40289218639072294  1.0000
  H   H2        1.0  0.5132755327499285  0.28368613595439746  0.9028921862832852  1.0000
  H   H3        1.0  0.5132755327499285  0.7163138639704234  0.9028921862832852  1.0000
  H   H4        1.0  0.4867244680121984  0.28368613595439746  0.40289218639072294  1.0000
  H   H5        1.0  0.9867244676915072  0.21631386400801297  0.40289218639072294  1.0000
  H   H6        1.0  0.013275533070619721  0.7836861359168079  0.9028921862832852  1.0000
  H   H7        1.0  0.013275533070619721  0.21631386400801297  0.9028921862832852  1.0000
  H   H8        1.0  0.9867244676915072  0.7836861359168079  0.40289218639072294  1.0000
  H   H9        1.0  0.40249242026550475  0.9083587980035775  0.31600034722171116  1.0000
  H   H10       1.0  0.5975075790931129  0.09164120192124328  0.8160003471142733  1.0000
  H   H11       1.0  0.5975075790931129  0.9083587980035775  0.8160003471142733  1.0000
  H   H12       1.0  0.40249242026550475  0.09164120192124328  0.31600034722171116  1.0000
  H   H13       1.0  0.9024924199448137  0.40835879804116715  0.31600034722171116  1.0000
  H   H14       1.0  0.09750757941380404  0.5916412018836538  0.8160003471142733  1.0000
  H   H15       1.0  0.09750757941380404  0.40835879804116715  0.8160003471142733  1.0000
  H   H16       1.0  0.9024924199448137  0.5916412018836538  0.31600034722171116  1.0000
  H   H17       1.0  0.659827978463808  0.763165215373648  0.6237008901780849  1.0000
  H   H18       1.0  0.3401720222983188  0.2368347845511729  0.12370089028552282  1.0000
  H   H19       1.0  0.3401720222983188  0.763165215373648  0.12370089028552282  1.0000
  H   H20       1.0  0.659827978463808  0.2368347845511729  0.6237008901780849  1.0000
  H   H21       1.0  0.15982797738099003  0.2631652154112375  0.6237008901780849  1.0000
  H   H22       1.0  0.8401720219776276  0.7368347845135833  0.12370089028552282  1.0000
  H   H23       1.0  0.8401720219776276  0.2631652154112375  0.12370089028552282  1.0000
  H   H24       1.0  0.15982797738099003  0.7368347845135833  0.6237008901780849  1.0000
  H   H25       1.0  0.5958727181696488  0.6687080205661673  0.5391278438495556  1.0000
  H   H26       1.0  0.4041272811889688  0.33129197935865357  0.03912784395699343  1.0000
  H   H27       1.0  0.4041272811889688  0.6687080205661673  0.03912784395699343  1.0000
  H   H28       1.0  0.5958727181696488  0.33129197935865357  0.5391278438495556  1.0000
  H   H29       1.0  0.09587271849034  0.16870802060375686  0.5391278438495556  1.0000
  H   H30       1.0  0.9041272822717868  0.8312919793210639  0.03912784395699343  1.0000
  H   H31       1.0  0.9041272822717868  0.16870802060375686  0.03912784395699343  1.0000
  H   H32       1.0  0.09587271849034  0.8312919793210639  0.5391278438495556  1.0000
  C   C1        1.0  0.39450465887141345  0.49999999996241046  0.24724733668060506  1.0000
  C   C2        1.0  0.6054953418907134  0.49999999996241046  0.7472473365731673  1.0000
  C   C3        1.0  0.8945046585507223  0.0  0.24724733668060506  1.0000
  C   C4        1.0  0.10549534080789535  0.0  0.7472473365731673  1.0000
  C   C5        1.0  0.4052052029700044  0.6330536481251395  0.2939944284949817  1.0000
  C   C6        1.0  0.5947947977921225  0.3669463517996813  0.7939944283875439  1.0000
  C   C7        1.0  0.5947947977921225  0.6330536481251395  0.7939944283875439  1.0000
  C   C8        1.0  0.4052052029700044  0.3669463517996813  0.2939944284949817  1.0000
  C   C9        1.0  0.9052052026493133  0.13305364816272908  0.2939944284949817  1.0000
  C   C10       1.0  0.09479479811281367  0.8669463517620918  0.7939944283875439  1.0000
  C   C11       1.0  0.09479479811281367  0.13305364816272908  0.7939944283875439  1.0000
  C   C12       1.0  0.9052052026493133  0.8669463517620918  0.2939944284949817  1.0000
  C   C13       1.0  0.5015585714532467  0.49999999996241046  0.4098186968869844  1.0000
  C   C14       1.0  0.498441427905371  0.49999999996241046  0.9098186967795466  1.0000
  C   C15       1.0  0.0015585717739378243  0.0  0.4098186968869844  1.0000
  C   C16       1.0  0.9984414289881891  0.0  0.9098186967795466  1.0000
  C   C17       1.0  0.490141058682495  0.0  0.41888616550502283  1.0000
  C   C18       1.0  0.5098589420796319  0.0  0.918886165397585  1.0000
  C   C19       1.0  0.9901410583618038  0.49999999996241046  0.41888616550502283  1.0000
  C   C20       1.0  0.009858942400323107  0.49999999996241046  0.918886165397585  1.0000
  C   C21       1.0  0.5863559485207459  0.8805301429265933  0.5284190981329053  1.0000
  C   C22       1.0  0.4136440508378718  0.11946985699822761  0.028419098240343187  1.0000
  C   C23       1.0  0.4136440508378718  0.8805301429265933  0.028419098240343187  1.0000
  C   C24       1.0  0.5863559485207459  0.11946985699822761  0.5284190981329053  1.0000
  C   C25       1.0  0.08635594884143699  0.38053014296418286  0.5284190981329053  1.0000
  C   C26       1.0  0.9136440505171807  0.619469856960638  0.028419098240343187  1.0000
  C   C27       1.0  0.9136440505171807  0.38053014296418286  0.028419098240343187  1.0000
  C   C28       1.0  0.08635594884143699  0.619469856960638  0.5284190981329053  1.0000
  N   N1        1.0  0.46843588616828563  0.6224026311630194  0.37019755411980443  1.0000
  N   N2        1.0  0.5315641145938413  0.3775973687618015  0.8701975540123666  1.0000
  N   N3        1.0  0.5315641145938413  0.6224026311630194  0.8701975540123666  1.0000
  N   N4        1.0  0.46843588616828563  0.3775973687618015  0.37019755411980443  1.0000
  N   N5        1.0  0.9684358858475943  0.12240263120060892  0.37019755411980443  1.0000
  N   N6        1.0  0.03156411351102324  0.8775973687242119  0.8701975540123666  1.0000
  N   N7        1.0  0.03156411351102324  0.12240263120060892  0.8701975540123666  1.0000
  N   N8        1.0  0.9684358858475943  0.8775973687242119  0.37019755411980443  1.0000
  N   N9        1.0  0.5230775010952096  0.8752830765830805  0.45323521156676916  1.0000
  N   N10       1.0  0.47692249966691735  0.12471692334174035  0.9532352114593313  1.0000
  N   N11       1.0  0.47692249966691735  0.8752830765830805  0.9532352114593313  1.0000
  N   N12       1.0  0.5230775010952096  0.12471692334174035  0.45323521156676916  1.0000
  N   N13       1.0  0.023077501415900755  0.37528307662067006  0.45323521156676916  1.0000
  N   N14       1.0  0.9769224993462262  0.6247169233041509  0.9532352114593313  1.0000
  N   N15       1.0  0.9769224993462262  0.37528307662067006  0.9532352114593313  1.0000
  N   N16       1.0  0.023077501415900755  0.6247169233041509  0.45323521156676916  1.0000
  N   N17       1.0  0.6159873638110093  0.0  0.5686129321270719  1.0000
  N   N18       1.0  0.38401263554760834  0.0  0.06861293223450968  1.0000
  N   N19       1.0  0.11598736413170047  0.49999999996241046  0.5686129321270719  1.0000
  N   N20       1.0  0.8840126352269172  0.49999999996241046  0.06861293223450968  1.0000
  N   N21       1.0  0.4206108925761549  0.0  0.34568836485753845  1.0000
  N   N22       1.0  0.5793891067824627  0.0  0.8456883647501007  1.0000
  N   N23       1.0  0.920610893658973  0.49999999996241046  0.34568836485753845  1.0000
  N   N24       1.0  0.0793891071031539  0.49999999996241046  0.8456883647501007  1.0000
  N   N25       1.0  0.6212275874007092  0.7616361721244331  0.5659806969961693  1.0000
  N   N26       1.0  0.37877241195790845  0.2383638278003877  0.06598069710360707  1.0000
  N   N27       1.0  0.37877241195790845  0.7616361721244331  0.06598069710360707  1.0000
  N   N28       1.0  0.6212275874007092  0.2383638278003877  0.5659806969961693  1.0000
  N   N29       1.0  0.12122758772140038  0.26163617216202273  0.5659806969961693  1.0000
  N   N30       1.0  0.8787724130407265  0.7383638277627981  0.06598069710360707  1.0000
  N   N31       1.0  0.8787724130407265  0.26163617216202273  0.06598069710360707  1.0000
  N   N32       1.0  0.12122758772140038  0.7383638277627981  0.5659806969961693  1.0000
  O   O1        1.0  0.3628593748056456  0.7457504197459267  0.2646581487872949  1.0000
  O   O2        1.0  0.6371406245529719  0.25424958017889404  0.7646581486798572  1.0000
  O   O3        1.0  0.6371406245529719  0.7457504197459267  0.7646581486798572  1.0000
  O   O4        1.0  0.3628593748056456  0.25424958017889404  0.2646581487872949  1.0000
  O   O5        1.0  0.8628593758884637  0.24575041978351636  0.2646581487872949  1.0000
  O   O6        1.0  0.1371406248736632  0.7542495801413045  0.7646581486798572  1.0000
  O   O7        1.0  0.1371406248736632  0.24575041978351636  0.7646581486798572  1.0000
  O   O8        1.0  0.8628593758884637  0.7542495801413045  0.2646581487872949  1.0000
  O   O9        1.0  0.5544921731503843  0.49999999996241046  0.47950028165886793  1.0000
  O   O10       1.0  0.4455078276117426  0.49999999996241046  0.9795002815514301  1.0000
  O   O11       1.0  0.054492173471075475  0.0  0.47950028165886793  1.0000
  O   O12       1.0  0.9455078272910514  0.0  0.9795002815514301  1.0000
  Br  Br1       1.0  0.6241022199864558  0.49999999996241046  0.17705942967909513  1.0000
  Br  Br2       1.0  0.37589778077567104  0.49999999996241046  0.6770594295716573  1.0000
  Br  Br3       1.0  0.12410221890363776  0.0  0.17705942967909513  1.0000
  Br  Br4       1.0  0.8758977804549799  0.0  0.6770594295716573  1.0000
  Br  Br5       1.0  0.17279875525715427  0.49999999996241046  0.1797739816702931  1.0000
  Br  Br6       1.0  0.8272012441014633  0.49999999996241046  0.6797739821528177  1.0000
  Br  Br7       1.0  0.6727987563399724  0.0  0.1797739816702931  1.0000
  Br  Br8       1.0  0.3272012444221546  0.0  0.6797739821528177  1.0000
