data_image0
_chemical_formula_structural       H36C72N16S4
_chemical_formula_sum              "H36 C72 N16 S4"
_cell_length_a       6.540992233357144
_cell_length_b       14.991234339270184
_cell_length_c       15.426672913132949
_cell_angle_alpha    80.95350681592075
_cell_angle_beta     83.07733443036554
_cell_angle_gamma    88.6013215405657

_space_group_name_H-M_alt    "P 1"
_space_group_IT_number       1

loop_
  _space_group_symop_operation_xyz
  'x, y, z'

loop_
  _atom_site_type_symbol
  _atom_site_label
  _atom_site_symmetry_multiplicity
  _atom_site_fract_x
  _atom_site_fract_y
  _atom_site_fract_z
  _atom_site_occupancy
  H   H1        1.0  0.6962482250390228  0.06617806622355724  0.6820835643400724  1.0000
  H   H2        1.0  0.3037517750887352  0.9338219340552182  0.3179164355224408  1.0000
  H   H3        1.0  0.9678777819877333  0.0710356517069165  0.6736014388213013  1.0000
  H   H4        1.0  0.03212221816728932  0.928964347896447  0.3263985611460237  1.0000
  H   H5        1.0  0.8480224299126183  0.028269748960238542  0.5907296741119483  1.0000
  H   H6        1.0  0.15197756870257453  0.9717302506349283  0.4092703259357006  1.0000
  H   H7        1.0  0.2938263642157902  0.1988497936253928  0.4480657678168925  1.0000
  H   H8        1.0  0.7061736359392323  0.8011502059779706  0.5519342321504326  1.0000
  H   H9        1.0  0.15352750730648995  0.09711413516797954  0.47243306830129744  1.0000
  H   H10       1.0  0.8464724928212682  0.9028858651107957  0.5275669315612157  1.0000
  H   H11       1.0  0.2687918072212926  0.13760391798183724  0.557324782497977  1.0000
  H   H12       1.0  0.7312081913666358  0.8623960822887415  0.44267521744485994  1.0000
  H   H13       1.0  0.8351949518255433  0.40087330993814346  0.650994294484613  1.0000
  H   H14       1.0  0.1648050483294793  0.59912668966522  0.3490057054827121  1.0000
  H   H15       1.0  0.8519082138039084  0.5127483667251808  0.7513496330567051  1.0000
  H   H16       1.0  0.14809178632384973  0.48725163355359463  0.24865036680580802  1.0000
  H   H17       1.0  0.662215519317716  0.6575832254771999  0.7288952610684556  1.0000
  H   H18       1.0  0.33778448083730656  0.3424167741261634  0.2711047388988695  1.0000
  H   H19       1.0  0.44507578443122375  0.6916050834946521  0.6075426789849743  1.0000
  H   H20       1.0  0.5549242157237989  0.30839491610871145  0.39245732098235087  1.0000
  H   H21       1.0  0.6925854896406956  0.12849807877131875  0.9500657491345023  1.0000
  H   H22       1.0  0.30741451048706264  0.8715019215074565  0.049934250728010825  1.0000
  H   H23       1.0  0.6730373284816734  0.0267720552876742  0.0918517293921075  1.0000
  H   H24       1.0  0.3269626716460846  0.973227944991101  0.9081482704704057  1.0000
  H   H25       1.0  0.6435993908411816  0.2585228011032807  0.23054717236232855  1.0000
  H   H26       1.0  0.3564006093138411  0.7414771985000828  0.7694528276049964  1.0000
  H   H27       1.0  0.6461507493769667  0.3597608942644338  0.09075506921218286  1.0000
  H   H28       1.0  0.35384925077805574  0.6402391053389297  0.9092449307551422  1.0000
  H   H29       1.0  0.21333748903936173  0.21520939978745887  0.8220313057976711  1.0000
  H   H30       1.0  0.7866625110883964  0.7847906004913165  0.177968694064842  1.0000
  H   H31       1.0  0.1817189470654233  0.1112861711548046  0.9621139341447675  1.0000
  H   H32       1.0  0.8182810530895992  0.8887138284485587  0.03788606582255752  1.0000
  H   H33       1.0  0.14825688327338057  0.33923827413964436  0.10685028534730831  1.0000
  H   H34       1.0  0.8517431168543774  0.660761726139131  0.8931497145152049  1.0000
  H   H35       1.0  0.17821608639684375  0.44279384554112944  0.9675312061870742  1.0000
  H   H36       1.0  0.8217839137581787  0.5572061540622338  0.032468793780251  1.0000
  C   C1        1.0  0.8356452698300353  0.07899991361271408  0.6354234558599553  1.0000
  C   C2        1.0  0.16435473029772274  0.9210000866660613  0.3645765440025578  1.0000
  C   C3        1.0  0.8354269118727704  0.1718212530737481  0.5835870807764836  1.0000
  C   C4        1.0  0.16457308825498776  0.8281787472050273  0.4164129190860295  1.0000
  C   C5        1.0  0.9950430604215849  0.20745247319559068  0.5227943515324938  1.0000
  C   C6        1.0  0.0049569397061731725  0.7925475270831848  0.4772056483300195  1.0000
  C   C7        1.0  0.18889500239498988  0.15824704549494578  0.49864804530683204  1.0000
  C   C8        1.0  0.8111049977327683  0.8417529547838296  0.501351954555681  1.0000
  C   C9        1.0  0.7217337430436483  0.33124916676448135  0.526147927357762  1.0000
  C   C10       1.0  0.27826625711137415  0.668750832838882  0.4738520726095632  1.0000
  C   C11       1.0  0.6098685887175175  0.41789252602736215  0.5121344455793577  1.0000
  C   C12       1.0  0.3901314114102405  0.5821074742514131  0.4878655542831555  1.0000
  C   C13       1.0  0.6262029924725709  0.48089946753082347  0.5699486068653493  1.0000
  C   C14       1.0  0.37379700765518714  0.5191005327479519  0.43005139299716383  1.0000
  C   C15       1.0  0.7491924632344186  0.4639881421924112  0.6410292276539851  1.0000
  C   C16       1.0  0.25080753692060404  0.5360118574109523  0.3589707723133399  1.0000
  C   C17       1.0  0.7591196048237379  0.5261226277976089  0.6969061358151188  1.0000
  C   C18       1.0  0.2408803953040202  0.47387737248116646  0.30309386404739436  1.0000
  C   C19       1.0  0.6491375836210034  0.6087880523257231  0.6846846538226729  1.0000
  C   C20       1.0  0.35086241650675476  0.39121194795305225  0.3153153460398403  1.0000
  C   C21       1.0  0.5299979159000815  0.6280238242376998  0.6165871977167722  1.0000
  C   C22       1.0  0.47000208422767664  0.37197617604107547  0.38341280214574097  1.0000
  C   C23       1.0  0.48682950731649205  0.43507583452976606  0.4422783823170869  1.0000
  C   C24       1.0  0.5131704928385304  0.5649241650735974  0.5577216176502382  1.0000
  C   C25       1.0  0.6823878779574402  0.4061695653540996  0.9229318635091198  1.0000
  C   C26       1.0  0.31761212217108975  0.5938304349278104  0.0770681370010958  1.0000
  C   C27       1.0  0.714925410160145  0.2784563635996377  0.8462923795929714  1.0000
  C   C28       1.0  0.2850745899948775  0.7215436360037257  0.15370762037435373  1.0000
  C   C29       1.0  0.6852186847743762  0.31117959799756745  0.927932533481103  1.0000
  C   C30       1.0  0.31478131384081665  0.6888204015975995  0.07206746656654583  1.0000
  C   C31       1.0  0.6688366039353444  0.2522854550711384  0.009200210970235913  1.0000
  C   C32       1.0  0.33116339619241386  0.7477145452076368  0.9907997888922772  1.0000
  C   C33       1.0  0.675867551377395  0.15639392831742766  0.011724856590376307  1.0000
  C   C34       1.0  0.32413244875113506  0.8436060719644823  0.9882751439198391  1.0000
  C   C35       1.0  0.6671627145175422  0.09966680091431622  0.09073936843869247  1.0000
  C   C36       1.0  0.332837285610216  0.9003331993644592  0.9092606314238207  1.0000
  C   C37       1.0  0.6554424012209175  0.1343227994497035  0.1725023256704563  1.0000
  C   C38       1.0  0.3445575989341049  0.8656772001536599  0.8274976742968688  1.0000
  C   C39       1.0  0.647539560100233  0.2301213302938305  0.1695913754211593  1.0000
  C   C40       1.0  0.3524604400547897  0.7698786693095329  0.8304086245461658  1.0000
  C   C41       1.0  0.6513421677308254  0.2870495964794008  0.09097233428654011  1.0000
  C   C42       1.0  0.3486578324241972  0.7129504031239625  0.9090276656807851  1.0000
  C   C43       1.0  0.6563091290910892  0.07562214722931707  0.2539407841532565  1.0000
  C   C44       1.0  0.3436908710639336  0.9243778523740462  0.7460592158140686  1.0000
  C   C45       1.0  0.669249517539189  0.9809741142396331  0.2583671551891381  1.0000
  C   C46       1.0  0.3307504826158337  0.01902588536373036  0.7416328447781869  1.0000
  C   C47       1.0  0.651417803155252  0.10803711473872134  0.335360415189872  1.0000
  C   C48       1.0  0.3485821969725061  0.891962885540054  0.6646395846726412  1.0000
  C   C49       1.0  0.2049475443577114  0.4927328140332925  0.8017131398300608  1.0000
  C   C50       1.0  0.7950524557973111  0.5072671855700709  0.19828686013726446  1.0000
  C   C51       1.0  0.2221702804102145  0.3687963085975199  0.7201034319340711  1.0000
  C   C52       1.0  0.7778297197448082  0.6312036910058435  0.2798965680332539  1.0000
  C   C53       1.0  0.21073550540919092  0.3982714666332061  0.8031618687349612  1.0000
  C   C54       1.0  0.7892644947458315  0.6017285329701573  0.19683813123236396  1.0000
  C   C55       1.0  0.19690741511952722  0.33752752530467783  0.8836881432905852  1.0000
  C   C56       1.0  0.803092585008231  0.6624724749740974  0.11631185657192802  1.0000
  C   C57       1.0  0.19910312760783103  0.2419362545338011  0.8843147749147022  1.0000
  C   C58       1.0  0.8008968725471916  0.7580637450695623  0.1156852250526228  1.0000
  C   C59       1.0  0.18301349695472685  0.1838879473189167  0.9625599941300141  1.0000
  C   C60       1.0  0.8169865031730313  0.8161120529598587  0.037440005732498984  1.0000
  C   C61       1.0  0.1655705878564676  0.21660470442392074  0.04562841252612854  1.0000
  C   C62       1.0  0.8344294122712905  0.7833952958548546  0.9543715873363846  1.0000
  C   C63       1.0  0.1627988996821725  0.3122415867939193  0.044784465139397676  1.0000
  C   C64       1.0  0.83720110047285  0.687758412809444  0.9552155348279273  1.0000
  C   C65       1.0  0.1781853542989691  0.37033015342881265  0.9665424184188055  1.0000
  C   C66       1.0  0.8218146458560535  0.6296698461745508  0.03345758154851964  1.0000
  C   C67       1.0  0.1522036032180055  0.15564440425164408  0.1256398399998368  1.0000
  C   C68       1.0  0.8477963969097526  0.8443555960271313  0.8743601598626765  1.0000
  C   C69       1.0  0.1548854922187458  0.06125628796636966  0.1260128040263808  1.0000
  C   C70       1.0  0.8451145079090122  0.9387437123124058  0.8739871958361325  1.0000
  C   C71       1.0  0.13789539012012839  0.1835978619417365  0.20954654449102808  1.0000
  C   C72       1.0  0.8621046100076296  0.8164021383370389  0.790453455371485  1.0000
  N   N1        1.0  0.6828048046928351  0.48504739850827283  0.9166000396202155  1.0000
  N   N2        1.0  0.31719519392235773  0.514952601086894  0.08339996042743353  1.0000
  N   N3        1.0  0.7450044393289349  0.2514391752455039  0.7786989627426975  1.0000
  N   N4        1.0  0.2549955607988233  0.7485608250332714  0.22130103711981572  1.0000
  N   N5        1.0  0.6793202662649562  0.902087565496812  0.26402141562331044  1.0000
  N   N6        1.0  0.3206797338628019  0.09791243478196328  0.7359785842392028  1.0000
  N   N7        1.0  0.6487558860573998  0.1341442985339919  0.4032336225819659  1.0000
  N   N8        1.0  0.3512441140976229  0.8658557010693716  0.5967663773853591  1.0000
  N   N9        1.0  0.19465792218720035  0.5711555587804857  0.7996832426948024  1.0000
  N   N10       1.0  0.8053420779405578  0.4288444414982895  0.20031675716771075  1.0000
  N   N11       1.0  0.22819779930161868  0.34605438349149636  0.6505241105815832  1.0000
  N   N12       1.0  0.7718022008261394  0.6539456167872789  0.34947588928093  1.0000
  N   N13       1.0  0.15599450445543225  0.9831380148209652  0.1257649699370181  1.0000
  N   N14       1.0  0.8440054957003622  0.016861984785532823  0.8742350306780095  1.0000
  N   N15       1.0  0.12615862243045117  0.20412925674882765  0.2801929327135708  1.0000
  N   N16       1.0  0.8738413761582493  0.7958707435248858  0.7198070678769686  1.0000
  S   S1        1.0  0.6282435557498964  0.24182241914029137  0.5982292536352726  1.0000
  S   S2        1.0  0.37175644437786165  0.7581775811384838  0.40177074622724057  1.0000
  S   S3        1.0  0.9579195256699857  0.3161200789155507  0.4737202629292108  1.0000
  S   S4        1.0  0.04208047445777255  0.6838799213632246  0.5262797369333023  1.0000
