data_image0
_chemical_formula_structural       H70C54N26O30Cl2
_chemical_formula_sum              "H70 C54 N26 O30 Cl2"
_cell_length_a       12.017563236257903
_cell_length_b       12.114137876486048
_cell_length_c       12.752076303624703
_cell_angle_alpha    107.06258682164173
_cell_angle_beta     112.65591229237297
_cell_angle_gamma    92.16908914907532

_space_group_name_H-M_alt    "P 1"
_space_group_IT_number       1

loop_
  _space_group_symop_operation_xyz
  'x, y, z'

loop_
  _atom_site_type_symbol
  _atom_site_label
  _atom_site_symmetry_multiplicity
  _atom_site_fract_x
  _atom_site_fract_y
  _atom_site_fract_z
  _atom_site_occupancy
  H   H1        1.0  0.7416801668066556  0.5369411695277285  0.4410950195835633  1.0000
  H   H2        1.0  0.25831983357948907  0.4630588305729672  0.5589049806907334  1.0000
  H   H3        1.0  0.6242417500441496  0.5833473574427677  0.14450756513841737  1.0000
  H   H4        1.0  0.37575824950984005  0.4166526426606101  0.8554924351355199  1.0000
  H   H5        1.0  0.1263398045111373  0.8342160061333034  0.9559970282857642  1.0000
  H   H6        1.0  0.873660195495695  0.16578399367498262  0.04400297108700663  1.0000
  H   H7        1.0  0.5651217395374549  0.7716557010636393  0.38325830487273377  1.0000
  H   H8        1.0  0.4348782600165347  0.22834429903973866  0.6167416954012035  1.0000
  H   H9        1.0  0.5692467660387551  0.621665818540149  0.30891607866893545  1.0000
  H   H10       1.0  0.4307532343473896  0.3783341815605468  0.6910839216053613  1.0000
  H   H11       1.0  0.866712248601073  0.6015887724100031  0.658738468912506  1.0000
  H   H12       1.0  0.13328775178507174  0.3984112276906927  0.3412615313617907  1.0000
  H   H13       1.0  0.2606319986002943  0.02324642406575971  0.0517223882770916  1.0000
  H   H14       1.0  0.7393680005743828  0.9767535757452084  0.9482776110953197  1.0000
  H   H15       1.0  0.6126043656514296  0.686914662531039  0.0029943179426438664  1.0000
  H   H16       1.0  0.38739563473471506  0.3130853375696568  0.9970056823316528  1.0000
  H   H17       1.0  0.9376341207010717  0.5410728678770473  0.2874346438254831  1.0000
  H   H18       1.0  0.062365879685073095  0.45892713222364845  0.7125653564488136  1.0000
  H   H19       1.0  0.7819998222169379  0.4921972830746181  0.2587718846500105  1.0000
  H   H20       1.0  0.21800017733705174  0.5078027170287598  0.7412281156239269  1.0000
  H   H21       1.0  0.5486628169881451  0.9732605945212304  0.1136699925589235  1.0000
  H   H22       1.0  0.4513371833979997  0.02673940557946543  0.8863300077153733  1.0000
  H   H23       1.0  0.56876268236553  0.8778690653729315  0.987094080736028  1.0000
  H   H24       1.0  0.4312373171884596  0.12213093473044624  0.01290591953790911  1.0000
  H   H25       1.0  0.8110072447017154  0.8810624848009093  0.8020771953957864  1.0000
  H   H26       1.0  0.18899275447296185  0.1189375150100587  0.19792280397662498  1.0000
  H   H27       1.0  0.8923729014160787  0.7641650609801297  0.8334691492216387  1.0000
  H   H28       1.0  0.10762709897006595  0.235834939120566  0.1665308510526579  1.0000
  H   H29       1.0  0.18516043521021444  0.6651249493688536  0.7068322182293318  1.0000
  H   H30       1.0  0.8148395639644627  0.3348750504421145  0.2931677811430795  1.0000
  H   H31       1.0  0.09462582123611107  0.6527996504403046  0.7885003703149116  1.0000
  H   H32       1.0  0.9053741791155605  0.34720034883421647  0.21149962995905927  1.0000
  H   H33       1.0  0.7631430796227883  0.7612727250074917  0.9334864039270068  1.0000
  H   H34       1.0  0.23685691993120137  0.23872727509588634  0.0665135963469306  1.0000
  H   H35       1.0  0.9183018105423221  0.7473090120620292  0.0164718786905951  1.0000
  H   H36       1.0  0.08169818946451038  0.25269098774625687  0.9835281206821758  1.0000
  H   H37       1.0  0.5593161575120204  0.23874421772090168  0.2101230520231872  1.0000
  H   H38       1.0  0.44068384249481185  0.7612557820873842  0.7898769473495837  1.0000
  H   H39       1.0  0.4509943478226214  0.1783888203156752  0.22635445974543517  1.0000
  H   H40       1.0  0.5490056521842109  0.8216111794926108  0.7736455396273357  1.0000
  H   H41       1.0  0.20191026022743985  0.7777161641673653  0.2178172115806055  1.0000
  H   H42       1.0  0.7980897401587049  0.22228383593333043  0.7821827886936912  1.0000
  H   H43       1.0  0.011504219148041249  0.021621517195529672  0.3914629205172519  1.0000
  H   H44       1.0  0.9884957804059484  0.9783784829078481  0.6085370797566854  1.0000
  H   H45       1.0  0.1212458480306874  0.08143631465305265  0.5420542690451786  1.0000
  H   H46       1.0  0.8787541519761449  0.9185636851552335  0.4579457303275922  1.0000
  H   H47       1.0  0.1803010347758013  0.929587637682838  0.34092906557307356  1.0000
  H   H48       1.0  0.8196989652310311  0.0704123621254481  0.6590709337996973  1.0000
  H   H49       1.0  0.28723199062285965  0.9757357008544723  0.49492730326642886  1.0000
  H   H50       1.0  0.7127680097632851  0.024264299246223597  0.5050726970078679  1.0000
  H   H51       1.0  0.3236955755090764  0.8110088076630744  0.5804461338307696  1.0000
  H   H52       1.0  0.6763044240449132  0.18899119244030352  0.4195538664431677  1.0000
  H   H53       1.0  0.3997998665151789  0.6192082491240799  0.5465806573985423  1.0000
  H   H54       1.0  0.6002001330388108  0.3807917509792979  0.4534193428753948  1.0000
  H   H55       1.0  0.27719448349206377  0.5853420194776177  0.17095085606011104  1.0000
  H   H56       1.0  0.722805516894081  0.41465798062307796  0.8290491442141856  1.0000
  H   H57       1.0  0.14295834559123904  0.8756652816506231  0.5477634293076903  1.0000
  H   H58       1.0  0.8570416547949057  0.12433471845007266  0.45223657096660635  1.0000
  H   H59       1.0  0.03790493207558242  0.8183425466252382  0.3947591632827693  1.0000
  H   H60       1.0  0.9620950674784071  0.18165745347813958  0.6052408369911679  1.0000
  H   H61       1.0  0.44397180955927407  0.3567208177637601  0.2319641263319517  1.0000
  H   H62       1.0  0.5560281908268707  0.6432791823369356  0.7680358739423448  1.0000
  H   H63       1.0  0.3785570892470712  0.08130023197409796  0.30956024043182206  1.0000
  H   H64       1.0  0.6214429111390736  0.9186997681265979  0.6904397598424747  1.0000
  H   H65       1.0  0.472887137396993  0.01359576390284485  0.2645354387846759  1.0000
  H   H66       1.0  0.5271128629891516  0.9864042361978508  0.7354645614896207  1.0000
  H   H67       1.0  0.02413031155985824  0.5999571609525024  0.9371734752253988  1.0000
  H   H68       1.0  0.9758696888262866  0.40004283914819333  0.06282652504889782  1.0000
  H   H69       1.0  0.9628582286729798  0.4797257933714871  0.8428680136127715  1.0000
  H   H70       1.0  0.03714177171316507  0.5202742067292089  0.15713198666152528  1.0000
  C   C1        1.0  0.2553732063520855  0.8797622482865003  0.8050735272941458  1.0000
  C   C2        1.0  0.7446267932019041  0.12023775181687758  0.19492647297979138  1.0000
  C   C3        1.0  0.629196539236422  0.8476028036379563  0.2481352564633536  1.0000
  C   C4        1.0  0.37080345993825514  0.15239719617301178  0.7518647429090578  1.0000
  C   C5        1.0  0.877123183777898  0.6817059148271236  0.17002534009827525  1.0000
  C   C6        1.0  0.1228768166082468  0.31829408527357217  0.8299746601760214  1.0000
  C   C7        1.0  0.005788938155193033  0.6386405333591773  0.5084505104245349  1.0000
  C   C8        1.0  0.9942110622309516  0.3613594667415185  0.4915494898497617  1.0000
  C   C9        1.0  0.0012314605320765874  0.0346790799263901  0.8764593610748512  1.0000
  C   C10       1.0  0.9987685398540681  0.9653209201743057  0.12354063919944545  1.0000
  C   C11       1.0  0.7987804872308297  0.6239275182034748  0.47680475999305716  1.0000
  C   C12       1.0  0.20121951277600258  0.37607248160481127  0.5231952393797137  1.0000
  C   C13       1.0  0.6888919907676301  0.6662887643095139  0.18525896659746616  1.0000
  C   C14       1.0  0.31110800961851454  0.3337112357911819  0.8147410336768305  1.0000
  C   C15       1.0  0.11690917816973674  0.8830886110530233  0.8936820184314063  1.0000
  C   C16       1.0  0.883090822216408  0.11691138904767244  0.10631798184289053  1.0000
  C   C17       1.0  0.6226254727058683  0.710908328541691  0.3571052937898184  1.0000
  C   C18       1.0  0.3773745276802764  0.28909167155900484  0.6428947064844782  1.0000
  C   C19       1.0  0.8809039456690746  0.6629929641455852  0.6146671841917695  1.0000
  C   C20       1.0  0.1190960547170701  0.3370070359551106  0.3853328160825272  1.0000
  C   C21       1.0  0.20573829225454685  0.003319090432578149  0.9545402465167091  1.0000
  C   C22       1.0  0.7942617072994427  0.9966809096707996  0.04545975375722814  1.0000
  C   C23       1.0  0.6810638772046934  0.732234765222911  0.09549563540231458  1.0000
  C   C24       1.0  0.3189361231814515  0.26776523487778475  0.9045043648719822  1.0000
  C   C25       1.0  0.7459446433915199  0.7952421311542761  0.5763493508469703  1.0000
  C   C26       1.0  0.2540553566153124  0.20475786865400983  0.4236506485258005  1.0000
  C   C27       1.0  0.855004785893744  0.5684233245277402  0.29659659061626087  1.0000
  C   C28       1.0  0.14499521449240077  0.4315766755729555  0.7034034096580358  1.0000
  C   C29       1.0  0.6131548184860043  0.9261814871743642  0.08432034763741462  1.0000
  C   C30       1.0  0.38684518190014044  0.07381851292633154  0.915679652636882  1.0000
  C   C31       1.0  0.8830352970014408  0.8322487534955351  0.7909741123703266  1.0000
  C   C32       1.0  0.11696470255254855  0.16775124660784285  0.2090258879036105  1.0000
  C   C33       1.0  0.11117085267044319  0.6969222475457818  0.7307263205234797  1.0000
  C   C34       1.0  0.8888291468835464  0.30307775255759595  0.2692736797504575  1.0000
  C   C35       1.0  0.8396654371367075  0.7868832669985778  0.02304851180915428  1.0000
  C   C36       1.0  0.1603345632494374  0.21311673310211793  0.9769514884651426  1.0000
  C   C37       1.0  0.24698826340307184  0.7380789901512579  0.2861589893074118  1.0000
  C   C38       1.0  0.753011736983073  0.2619210099494378  0.7138410109668849  1.0000
  C   C39       1.0  0.3416849748689729  0.5870435533995781  0.3555939946949634  1.0000
  C   C40       1.0  0.6583150246850166  0.4129564467037997  0.6444060055789739  1.0000
  C   C41       1.0  0.05017233011561029  0.004761408234323085  0.4779227791701766  1.0000
  C   C42       1.0  0.9498276694383792  0.9952385918690547  0.5220772211037605  1.0000
  C   C43       1.0  0.21117214056581077  0.9075737018081719  0.42383392246465845  1.0000
  C   C44       1.0  0.7888278589881786  0.09242629829520604  0.5761660778092788  1.0000
  C   C45       1.0  0.3157860742154659  0.7572922291342336  0.4920723996951557  1.0000
  C   C46       1.0  0.684213926170679  0.2427077709664623  0.5079276005791411  1.0000
  C   C47       1.0  0.35620719538761797  0.6512161736301897  0.4719029423175789  1.0000
  C   C48       1.0  0.6437928049985268  0.3487838264705062  0.5280970579567179  1.0000
  C   C49       1.0  0.28835050594509065  0.6323176122923381  0.26211513968062256  1.0000
  C   C50       1.0  0.7116494936088988  0.36768238781103973  0.7378848605933147  1.0000
  C   C51       1.0  0.10750177486935611  0.8941611364072235  0.4623652101370043  1.0000
  C   C52       1.0  0.8924982251374761  0.10583886340106258  0.5376347892357665  1.0000
  C   C53       1.0  0.38010317355569123  0.46916915092080386  0.333433373351033  1.0000
  C   C54       1.0  0.6198968268304537  0.530830849179892  0.6665666269232637  1.0000
  N   N1        1.0  0.722923110039223  0.7134910457411441  0.4666959797143082  1.0000
  N   N2        1.0  0.27707688951476644  0.2865089543622338  0.533304020559629  1.0000
  N   N3        1.0  0.8866639478285953  0.6220130548406075  0.4238148858388695  1.0000
  N   N4        1.0  0.11333605255754955  0.3779869452600883  0.5761851144354271  1.0000
  N   N5        1.0  0.647461006254342  0.8423518705024228  0.14671566175361023  1.0000
  N   N6        1.0  0.3525389941318028  0.15764812959827293  0.8532843385206864  1.0000
  N   N7        1.0  0.15240606044783403  0.820462591730209  0.7987888045424949  1.0000
  N   N8        1.0  0.8475939391061555  0.17953740837316887  0.2012111957314424  1.0000
  N   N9        1.0  0.9964265186468066  0.9152469806688445  0.8519055928407473  1.0000
  N   N10       1.0  0.0035734817393379315  0.08475301943185133  0.14809440743354932  1.0000
  N   N11       1.0  0.003325072149645673  0.6708844405424843  0.6204751570885998  1.0000
  N   N12       1.0  0.9966749282364992  0.3291155595582116  0.37952484318569696  1.0000
  N   N13       1.0  0.28511004203485335  0.9881595715777243  0.8913206000705586  1.0000
  N   N14       1.0  0.7148899583512914  0.011840428522971548  0.10867940020373806  1.0000
  N   N15       1.0  0.8462155131154531  0.7743921568426996  0.6629697686457797  1.0000
  N   N16       1.0  0.1537844872706917  0.22560784325799618  0.337030231628517  1.0000
  N   N17       1.0  0.8139039898875529  0.6450846222238805  0.22689965318353614  1.0000
  N   N18       1.0  0.18609600966643647  0.3549153778794973  0.773100347090401  1.0000
  N   N19       1.0  0.6607634551835065  0.7483932339769562  0.27650571557678283  1.0000
  N   N20       1.0  0.33923654520263824  0.25160676612373944  0.7234942846975139  1.0000
  N   N21       1.0  0.12307686648824484  0.08689527489367432  0.9318475630276493  1.0000
  N   N22       1.0  0.8769231338979  0.9131047252070215  0.06815243724664753  1.0000
  N   N23       1.0  0.803623856358603  0.7402362269684991  0.09922651446723907  1.0000
  N   N24       1.0  0.19637614319538677  0.2597637731348788  0.9007734858066982  1.0000
  N   N25       1.0  0.26071967596592627  0.7976005125677907  0.39955834696972775  1.0000
  N   N26       1.0  0.7392803244202184  0.20239948753290518  0.600441653304569  1.0000
  O   O1        1.0  0.21269954642716704  0.621287633030177  0.9642766685977134  1.0000
  O   O2        1.0  0.7873004535796654  0.37871236677810904  0.0357233307750575  1.0000
  O   O3        1.0  0.3664502766225534  0.6464351649351001  0.892852145721224  1.0000
  O   O4        1.0  0.6335497237635914  0.35356483516559567  0.10714785455307281  1.0000
  O   O5        1.0  0.42136570394313305  0.6246595503894798  0.08540391279086444  1.0000
  O   O6        1.0  0.5786342956108566  0.3753404497138979  0.9145960874830726  1.0000
  O   O7        1.0  0.35477803226905036  0.8007964113102292  0.053639835527572476  1.0000
  O   O8        1.0  0.6452219669056267  0.19920358850073885  0.946360163844839  1.0000
  O   O9        1.0  0.09688687078723478  0.6238053104468947  0.4870721110664977  1.0000
  O   O10       1.0  0.9031131295989099  0.37619468965380104  0.512927889207799  1.0000
  O   O11       1.0  0.31349038888110026  0.8405426855598046  0.7442868966281198  1.0000
  O   O12       1.0  0.686509611125732  0.15945731424848128  0.2557131027446512  1.0000
  O   O13       1.0  0.5907992537119385  0.9266851697744047  0.30461236419423804  1.0000
  O   O14       1.0  0.4092007466742062  0.0733148303262911  0.6953876360800586  1.0000
  O   O15       1.0  0.981023452976188  0.6647734337288451  0.17930470216300143  1.0000
  O   O16       1.0  0.018976546577801533  0.3352265663745327  0.8206952981109358  1.0000
  O   O17       1.0  0.6853236308654459  0.8738420575271519  0.5926102000085941  1.0000
  O   O18       1.0  0.31467636914138647  0.12615794228113408  0.4073897993641767  1.0000
  O   O19       1.0  0.9123845975558063  0.08598953687156098  0.8564934446313667  1.0000
  O   O20       1.0  0.08761540245102616  0.914010462936725  0.14350655474140414  1.0000
  O   O21       1.0  0.47360137502585836  0.24293811974959006  0.19768403645376814  1.0000
  O   O22       1.0  0.5263986253602864  0.7570618803511059  0.8023159638205286  1.0000
  O   O23       1.0  0.41904643263282937  0.44196965404504385  0.24677843561845567  1.0000
  O   O24       1.0  0.5809535669211603  0.558030346058334  0.7532215646554816  1.0000
  O   O25       1.0  0.37399403634840317  0.40695243990127944  0.3929235185782283  1.0000
  O   O26       1.0  0.6260059632055863  0.5930475602020984  0.6070764816957088  1.0000
  O   O27       1.0  0.4116572372161658  0.06554886161316363  0.24733667209313157  1.0000
  O   O28       1.0  0.5883427631699789  0.9344511384875323  0.7526633281811652  1.0000
  O   O29       1.0  0.9482291753714572  0.5611098799922448  0.8664351955744962  1.0000
  O   O30       1.0  0.051770825014687556  0.4388901201084508  0.1335648046998005  1.0000
  Cl  Cl1       1.0  0.3394288410867748  0.6741793037630366  0.999848239840224  1.0000
  Cl  Cl2       1.0  0.6605711589200576  0.3258206960452494  0.0001517595325468303  1.0000
