data_image0
_chemical_formula_structural       H92C84N4O16Br4
_chemical_formula_sum              "H92 C84 N4 O16 Br4"
_cell_length_a       7.328138112765859
_cell_length_b       10.670829068554141
_cell_length_c       23.972305579844825
_cell_angle_alpha    90.0
_cell_angle_beta     90.2147067675674
_cell_angle_gamma    90.0

_space_group_name_H-M_alt    "P 1"
_space_group_IT_number       1

loop_
  _space_group_symop_operation_xyz
  'x, y, z'

loop_
  _atom_site_type_symbol
  _atom_site_label
  _atom_site_symmetry_multiplicity
  _atom_site_fract_x
  _atom_site_fract_y
  _atom_site_fract_z
  _atom_site_occupancy
  H   H1        1.0  0.9544562942482088  0.20308191857238958  0.131962984741013  1.0000
  H   H2        1.0  0.545543706217176  0.7030819181715706  0.36803701508473874  1.0000
  H   H3        1.0  0.04554370580822068  0.7969180815631068  0.86803701506513  1.0000
  H   H4        1.0  0.45445629383925346  0.2969180819639257  0.6319629847214043  1.0000
  H   H5        1.0  0.18240878686589948  0.22214524333311156  0.11167200831202435  1.0000
  H   H6        1.0  0.317591212480065  0.7221452429322925  0.38832799159294124  1.0000
  H   H7        1.0  0.8175912131905299  0.7778547568023848  0.8883279914941187  1.0000
  H   H8        1.0  0.6824087875763645  0.2778547572032038  0.6116720082132018  1.0000
  H   H9        1.0  0.03304551277407661  0.011014218224744275  0.18614718858204565  1.0000
  H   H10       1.0  0.46695448795389355  0.5110142178239253  0.3138528117362656  1.0000
  H   H11       1.0  0.966954487299858  0.988985781910752  0.8138528116412312  1.0000
  H   H12       1.0  0.5330455121200411  0.488985782311571  0.6861471884870112  1.0000
  H   H13       1.0  0.26030648395385697  0.016642174554489627  0.16139814710841802  1.0000
  H   H14       1.0  0.23969351540961273  0.5166421741536706  0.33860185321368136  1.0000
  H   H15       1.0  0.7396935161200777  0.9833578255810068  0.8386018531148589  1.0000
  H   H16       1.0  0.7603064846643218  0.48335782598182575  0.6613981470095955  1.0000
  H   H17       1.0  0.07747546690382479  0.22146147640618163  0.2319763836646216  1.0000
  H   H18       1.0  0.4225245324421397  0.7214614760053627  0.26802361624034393  1.0000
  H   H19       1.0  0.9225245331526046  0.7785385237293146  0.7680236161415214  1.0000
  H   H20       1.0  0.5774754676142897  0.2785385241301337  0.731976383565799  1.0000
  H   H21       1.0  0.30264507101036864  0.22716591320382287  0.2061430882255612  1.0000
  H   H22       1.0  0.19735492833559587  0.7271659128030039  0.29385691167940436  1.0000
  H   H23       1.0  0.6973549290460608  0.7728340869316735  0.7938569115805819  1.0000
  H   H24       1.0  0.8026450717383388  0.27283408639535817  0.7061430885438725  1.0000
  H   H25       1.0  0.1531293589199478  0.036035473675908314  0.2900943105307116  1.0000
  H   H26       1.0  0.3468706417905171  0.5360354732750894  0.2099056893704659  1.0000
  H   H27       1.0  0.8468706411539868  0.963964526459588  0.7099056896925652  1.0000
  H   H28       1.0  0.6531293582659125  0.46396452686040696  0.7900943104356771  1.0000
  H   H29       1.0  0.3755058429378222  0.030778020891351482  0.2612233276373133  1.0000
  H   H30       1.0  0.12449415779014789  0.5307780204905325  0.23877667268099792  1.0000
  H   H31       1.0  0.6244941571361123  0.9692219792441449  0.7387766725859636  1.0000
  H   H32       1.0  0.8755058422837867  0.46922197964496387  0.7612233275422788  1.0000
  H   H33       1.0  0.4482472847278908  0.2396813587368751  0.30234761250854  1.0000
  H   H34       1.0  0.051752715982574034  0.7396813583360562  0.19765238739263746  1.0000
  H   H35       1.0  0.5517527153285385  0.7603186413986213  0.697652387297603  1.0000
  H   H36       1.0  0.9482472840738554  0.2603186417994402  0.8023476124135056  1.0000
  H   H37       1.0  0.21775466692155696  0.256169120734532  0.3251726324038054  1.0000
  H   H38       1.0  0.2822453338064131  0.7561691203337131  0.1748273679145058  1.0000
  H   H39       1.0  0.7822453331523777  0.7438308794009644  0.6748273678194714  1.0000
  H   H40       1.0  0.7177546662675215  0.243830878864649  0.825172632308771  1.0000
  H   H41       1.0  0.5576346472176112  0.007464249449437789  0.3329962142188249  1.0000
  H   H42       1.0  0.9423653532652786  0.5074642499857531  0.16700378602406063  1.0000
  H   H43       1.0  0.4423653528563234  0.9925357506860586  0.667003786004452  1.0000
  H   H44       1.0  0.05763464680865603  0.4925357501497432  0.8329962141992161  1.0000
  H   H45       1.0  0.19461058318593694  0.24666665571062746  0.4126548733883608  1.0000
  H   H46       1.0  0.30538941752452803  0.7466666553098085  0.0873451265128166  1.0000
  H   H47       1.0  0.8053894168704925  0.753333344424869  0.5873451264177821  1.0000
  H   H48       1.0  0.6946105825319014  0.25333334482568787  0.9126548732933265  1.0000
  H   H49       1.0  0.27367765573558883  0.1598959798754594  0.5053825962171822  1.0000
  H   H50       1.0  0.22632234392939057  0.6598959794746404  0.994617403986486  1.0000
  H   H51       1.0  0.7263223443383457  0.8401040202600369  0.4946174040060946  1.0000
  H   H52       1.0  0.7736776561445441  0.3401040197237217  0.005382596236790881  1.0000
  H   H53       1.0  0.6487466133599604  0.9082324248413038  0.4216305961552955  1.0000
  H   H54       1.0  0.8512533871054243  0.4082324243049886  0.07836940367045629  1.0000
  H   H55       1.0  0.3512533866964691  0.09176757529419248  0.5783694036508477  1.0000
  H   H56       1.0  0.14874661295100514  0.5917675758305078  0.9216305961356869  1.0000
  H   H57       1.0  0.9544424294346756  0.09803713219274235  0.9932590236439752  1.0000
  H   H58       1.0  0.5455575713497239  0.5980371317919234  0.506740976480479  1.0000
  H   H59       1.0  0.04555757062175378  0.9019628679427539  0.0067409761621677914  1.0000
  H   H60       1.0  0.45444242872421076  0.40196286740643866  0.4932590237427978  1.0000
  H   H61       1.0  0.7269087580231046  0.36025015163333235  0.2531709135286224  1.0000
  H   H62       1.0  0.7730912424422801  0.8602501512325134  0.24682908629712935  1.0000
  H   H63       1.0  0.27309124203332485  0.639749848502164  0.7468290862775205  1.0000
  H   H64       1.0  0.22690875761414933  0.13974984890298298  0.7531709135090138  1.0000
  H   H65       1.0  0.6073330601171818  0.4744767053686885  0.17123129363288045  1.0000
  H   H66       1.0  0.8926669403482028  0.9744767049678696  0.3287687061928713  1.0000
  H   H67       1.0  0.3926669399392476  0.5255232947668078  0.8287687061732627  1.0000
  H   H68       1.0  0.1073330597082266  0.025523295167626844  0.6712312936132718  1.0000
  H   H69       1.0  0.6461175962234648  0.007858290997005163  0.16776980396810348  1.0000
  H   H70       1.0  0.8538824042419199  0.5078582905961861  0.33223019585764835  1.0000
  H   H71       1.0  0.35388240383296476  0.9921417091384912  0.8322301958380396  1.0000
  H   H72       1.0  0.14611759581450948  0.4921417095393102  0.6677698039484946  1.0000
  H   H73       1.0  0.5224230782981861  0.007698075704546014  0.07177658960631748  1.0000
  H   H74       1.0  0.9775769221847037  0.507698075303727  0.42822341063656805  1.0000
  H   H75       1.0  0.4775769217757485  0.9923019244309503  0.9282234106169593  1.0000
  H   H76       1.0  0.022423077889230893  0.4923019248317693  0.5717765895867088  1.0000
  H   H77       1.0  0.39790753779384025  0.12372136705764733  0.9896590648812247  1.0000
  H   H78       1.0  0.1020924618711391  0.6237213666568283  0.5103409353224435  1.0000
  H   H79       1.0  0.6020924622625892  0.876278633077849  0.01034093492491848  1.0000
  H   H80       1.0  0.8979075382027955  0.3762786325415337  0.4896590649008333  1.0000
  H   H81       1.0  0.4764965286416625  0.47421731408969625  0.07495892668771734  1.0000
  H   H82       1.0  0.023503472086307667  0.9742173136888773  0.42504107363059396  1.0000
  H   H83       1.0  0.5235034714322722  0.5257826860458001  0.9250410735355594  1.0000
  H   H84       1.0  0.9764965279876269  0.0257826864466191  0.5749589265926829  1.0000
  H   H85       1.0  0.34561007385876286  0.3178901450119118  0.950403128814241  1.0000
  H   H86       1.0  0.15438992580621652  0.8178901455482271  0.5495968713894271  1.0000
  H   H87       1.0  0.6543899262151718  0.6821098551235846  0.04959687140903591  1.0000
  H   H88       1.0  0.8456100742502128  0.18210985458726922  0.45040312841671587  1.0000
  H   H89       1.0  0.7855322243174969  0.16703887378841825  0.29209791517486516  1.0000
  H   H90       1.0  0.7144677761478878  0.6670388733875994  0.20790208465088658  1.0000
  H   H91       1.0  0.21446777573893253  0.8329611263470781  0.707902084631278  1.0000
  H   H92       1.0  0.2855322239085416  0.33296112581076276  0.7920979151552565  1.0000
  C   C1        1.0  0.04489914816772629  0.07775660585222223  0.07004481381054903  1.0000
  C   C2        1.0  0.4551008525427386  0.5777566054514032  0.4299551860906285  1.0000
  C   C3        1.0  0.9551008519062083  0.9222433942832742  0.9299551864127279  1.0000
  C   C4        1.0  0.5448991475136908  0.42224339468409317  0.5700448137155146  1.0000
  C   C5        1.0  0.07987711305065016  0.15056966236436045  0.12257807293860835  1.0000
  C   C6        1.0  0.4201228863128196  0.6505696619635415  0.37742192738349095  1.0000
  C   C7        1.0  0.9201228870232845  0.849430337771136  0.8774219272846686  1.0000
  C   C8        1.0  0.5798771137611152  0.3494303372348206  0.6225780728397858  1.0000
  C   C9        1.0  0.14258216529427595  0.07498996796398173  0.1729774161341754  1.0000
  C   C10       1.0  0.357417835416189  0.574989968500297  0.3270225837670021  1.0000
  C   C11       1.0  0.8574178347621534  0.9250100321715147  0.8270225836719677  1.0000
  C   C12       1.0  0.6425821646577456  0.42501003163519935  0.6729774164562747  1.0000
  C   C13       1.0  0.19545979433677024  0.16275382154868676  0.22072601401318168  1.0000
  C   C14       1.0  0.3045402050091943  0.6627538220850021  0.2792739858917839  1.0000
  C   C15       1.0  0.8045402057196591  0.8372461785868097  0.7792739857929615  1.0000
  C   C16       1.0  0.6954597950472352  0.3372461780504943  0.7207260139143592  1.0000
  C   C17       1.0  0.26317488480652695  0.09409300660234876  0.2727131742752793  1.0000
  C   C18       1.0  0.23682511590393804  0.5940930071386641  0.2272868256258982  1.0000
  C   C19       1.0  0.7368251152499025  0.9059069935331476  0.7272868255308637  1.0000
  C   C20       1.0  0.7631748841524915  0.40590699299683225  0.7727131741802449  1.0000
  C   C21       1.0  0.3265745201174012  0.18850914179928455  0.3163259342076752  1.0000
  C   C22       1.0  0.17342547922856333  0.6885091413984655  0.1836740656972904  1.0000
  C   C23       1.0  0.6734254799390282  0.8114908583362117  0.683674065598468  1.0000
  C   C24       1.0  0.8265745208278661  0.3114908587370308  0.8163259341088527  1.0000
  C   C25       1.0  0.49787764843882226  0.035951686371823874  0.37247753228760294  1.0000
  C   C26       1.0  0.0021223522716426395  0.535951685971005  0.12752246761357452  1.0000
  C   C27       1.0  0.5021223516176071  0.9640483137636724  0.6275224675185401  1.0000
  C   C28       1.0  0.9978776478022919  0.46404831416449144  0.8724775326097022  1.0000
  C   C29       1.0  0.2957316886497304  0.17269060802692496  0.4177876011920186  1.0000
  C   C30       1.0  0.20426831206073456  0.672690607626106  0.08221239870915889  1.0000
  C   C31       1.0  0.7042683114066991  0.8273093921085715  0.5822123986141244  1.0000
  C   C32       1.0  0.7957316879956948  0.3273093925093904  0.9177876010969842  1.0000
  C   C33       1.0  0.3420194174388259  0.12227264925880674  0.46896939870681326  1.0000
  C   C34       1.0  0.1579805819071386  0.6222726497951221  0.03103060119815231  1.0000
  C   C35       1.0  0.6579805826176035  0.8777273499395554  0.5310306010993298  1.0000
  C   C36       1.0  0.842019418166796  0.37772735034037425  0.9689693990251245  1.0000
  C   C37       1.0  0.47212341097859645  0.026233822901816046  0.47281536034008365  1.0000
  C   C38       1.0  0.027876588367368067  0.5262338234381314  0.0271846395648819  1.0000
  C   C39       1.0  0.5278765890953382  0.973766176296546  0.5271846398831932  1.0000
  C   C40       1.0  0.9721234116890612  0.473766176697365  0.9728153602412611  1.0000
  C   C41       1.0  0.5472589679855175  0.982368518196156  0.4226646337855968  1.0000
  C   C42       1.0  0.9527410311153668  0.48236851765984073  0.07733536604394303  1.0000
  C   C43       1.0  0.4527410320709119  0.01763148193934032  0.5773353660205462  1.0000
  C   C44       1.0  0.04725896895856784  0.5176314824756556  0.9226646341793338  1.0000
  C   C45       1.0  0.6891993531182872  0.17578535350432342  0.21576790410399566  1.0000
  C   C46       1.0  0.8108006473470974  0.6757853540406388  0.2842320957217561  1.0000
  C   C47       1.0  0.3108006469381423  0.8242146456940386  0.7842320957021474  1.0000
  C   C48       1.0  0.1891993527268371  0.3242146460948576  0.7157679045015207  1.0000
  C   C49       1.0  0.6811821061269208  0.30875467302808324  0.21637674889824252  1.0000
  C   C50       1.0  0.8188178943559692  0.8087546726272643  0.283623251344643  1.0000
  C   C51       1.0  0.31881789394701393  0.691245327107413  0.7836232513250343  1.0000
  C   C52       1.0  0.18118210571796545  0.1912453275082321  0.7163767488786337  1.0000
  C   C53       1.0  0.6143492157874643  0.37244648419230136  0.17056946618836713  1.0000
  C   C54       1.0  0.88565078331342  0.8724464837914825  0.3294305336411727  1.0000
  C   C55       1.0  0.38565078428647026  0.627553515943195  0.8294305340349097  1.0000
  C   C56       1.0  0.11434921674300953  0.12755351634401396  0.6705694661649703  1.0000
  C   C57       1.0  0.554252915229391  0.3080711488189387  0.12207631799030312  1.0000
  C   C58       1.0  0.9457470852359937  0.808071149355254  0.37792368183544867  1.0000
  C   C59       1.0  0.44574708482703845  0.6919288503794233  0.8779236818158399  1.0000
  C   C60       1.0  0.05425291482043571  0.19192885078024233  0.6220763179706944  1.0000
  C   C61       1.0  0.5692649989937337  0.17394985413738867  0.12117443573209652  1.0000
  C   C62       1.0  0.930735001471651  0.673949854673704  0.3788255640936553  1.0000
  C   C63       1.0  0.43073500106269574  0.8260501459981077  0.8788255640740466  1.0000
  C   C64       1.0  0.06926499858477847  0.32605014546179234  0.6211744357124879  1.0000
  C   C65       1.0  0.6360724649913525  0.10996313430395818  0.16870148435850316  1.0000
  C   C66       1.0  0.8639275341095317  0.6099631348402735  0.33129851547103667  1.0000
  C   C67       1.0  0.36392753506507686  0.8900368658315383  0.83129851544764  1.0000
  C   C68       1.0  0.1360724659468977  0.3900368652952228  0.6687014843351065  1.0000
  C   C69       1.0  0.5130921419877127  0.10969484962039629  0.07212476510878403  1.0000
  C   C70       1.0  0.9869078571131715  0.6096948492195773  0.42787523472075584  1.0000
  C   C71       1.0  0.4869078580687167  0.8903051505151001  0.9278752346973591  1.0000
  C   C72       1.0  0.013092142960763031  0.39030515091591905  0.572124765502521  1.0000
  C   C73       1.0  0.44420483851286935  0.173624669470133  0.02676584213226696  1.0000
  C   C74       1.0  0.055795160833095186  0.6736246700064483  0.4732341577726986  1.0000
  C   C75       1.0  0.55579516154356  0.8263753306653633  0.9732341576738761  1.0000
  C   C76       1.0  0.9442048392408394  0.32637533012904807  0.5267658424505782  1.0000
  C   C77       1.0  0.4282286395587462  0.306372185234804  0.028108847072422803  1.0000
  C   C78       1.0  0.07177136116922395  0.806372184833985  0.4718911532458884  1.0000
  C   C79       1.0  0.5717713605151885  0.6936278149006924  0.9718911531508541  1.0000
  C   C80       1.0  0.9282286389047106  0.19362781436437707  0.5281088469773884  1.0000
  C   C81       1.0  0.4831616020793785  0.3722070098287273  0.0750816353987005  1.0000
  C   C82       1.0  0.016838398631086333  0.8722070094279082  0.424918364502477  1.0000
  C   C83       1.0  0.5168383979770509  0.6277929903067692  0.9249183644074425  1.0000
  C   C84       1.0  0.9831616014253431  0.12779299070758807  0.5750816353036661  1.0000
  N   N1        1.0  0.3737408588326827  0.12982586461650725  0.3704507363970856  1.0000
  N   N2        1.0  0.12625914051328177  0.6298258642156883  0.12954926350787993  1.0000
  N   N3        1.0  0.6262591412237467  0.870174135518989  0.6295492634090574  1.0000
  N   N4        1.0  0.8737408595431476  0.37017413498267376  0.8704507362982631  1.0000
  O   O1        1.0  0.08154375137591514  0.9645477838578665  0.06427876598045658  1.0000
  O   O2        1.0  0.4184562493345497  0.4645477842586856  0.43572123392072093  1.0000
  O   O3        1.0  0.9184562486805142  0.03545221534049546  0.9357212338256864  1.0000
  O   O4        1.0  0.5815437507218797  0.5354522158768108  0.5642787658854221  1.0000
  O   O5        1.0  0.9728515954274839  0.14752628871538115  0.029889250684309747  1.0000
  O   O6        1.0  0.5271484036909057  0.6475262892516965  0.4701107495623638  1.0000
  O   O7        1.0  0.02714840464645077  0.8524737114201152  0.9701107495389671  1.0000
  O   O8        1.0  0.47285159638302904  0.35247371088379986  0.529889250660913  1.0000
  O   O9        1.0  0.35953445222921443  0.37202991299886906  0.9841288505384101  1.0000
  O   O10       1.0  0.1404655487827602  0.8720299135351843  0.5158711492443361  1.0000
  O   O11       1.0  0.6404655478272151  0.627970086199493  0.015871149267732875  1.0000
  O   O12       1.0  0.8595344512736691  0.127970086600312  0.484128850561807  1.0000
  O   O13       1.0  0.7483165738013506  0.10938191892133371  0.2611293179111155  1.0000
  O   O14       1.0  0.751683426664034  0.6093819185205147  0.23887068191463623  1.0000
  O   O15       1.0  0.2516834262550787  0.8906180812141626  0.7388706818950276  1.0000
  O   O16       1.0  0.24831657340990068  0.3906180816149816  0.7611293183086405  1.0000
  Br  Br1       1.0  0.8522085206759884  0.27018844191744273  0.3673667580395996  1.0000
  Br  Br2       1.0  0.6477914784248958  0.7701884415166238  0.1326332417899402  1.0000
  Br  Br3       1.0  0.147791479380441  0.7298115582180537  0.6326332417665433  1.0000
  Br  Br4       1.0  0.3522085202670332  0.2298115576817383  0.8673667580199909  1.0000
