data_image0
_chemical_formula_structural       H80C88N8O24
_chemical_formula_sum              "H80 C88 N8 O24"
_cell_length_a       17.94331056341841
_cell_length_b       4.7695152776554925
_cell_length_c       21.83708553644445
_cell_angle_alpha    90.0
_cell_angle_beta     105.14719160855839
_cell_angle_gamma    90.0

_space_group_name_H-M_alt    "P 1"
_space_group_IT_number       1

loop_
  _space_group_symop_operation_xyz
  'x, y, z'

loop_
  _atom_site_type_symbol
  _atom_site_label
  _atom_site_symmetry_multiplicity
  _atom_site_fract_x
  _atom_site_fract_y
  _atom_site_fract_z
  _atom_site_occupancy
  H   H1        1.0  0.5026064327557628  0.3544515745488951  0.9628730466858983  1.0000
  H   H2        1.0  0.4973935670099085  0.8544515747946755  0.5371269535768779  1.0000
  H   H3        1.0  0.4973935672866859  0.6455484259426657  0.037126953643057854  1.0000
  H   H4        1.0  0.5026064324551776  0.14554842569688534  0.4628730466304046  1.0000
  H   H5        1.0  0.6271870732926244  0.9163005348728589  0.8471529144700589  1.0000
  H   H6        1.0  0.37281292647304687  0.4163005367237275  0.6528470857927173  1.0000
  H   H7        1.0  0.3728129267498243  0.08369946352205292  0.1528470858588973  1.0000
  H   H8        1.0  0.6271870735694018  0.5836994637678333  0.3471529145362389  1.0000
  H   H9        1.0  0.26537103484477614  0.834972196998098  0.8175713302012627  1.0000
  H   H10       1.0  0.7346289649208951  0.3349721967523175  0.6824286700615138  1.0000
  H   H11       1.0  0.7346289651976725  0.16502780349346294  0.18242867012769368  1.0000
  H   H12       1.0  0.2653710351215536  0.6650278037392433  0.31757133026744255  1.0000
  H   H13       1.0  0.2735917354252127  0.5050014120478883  0.8565098969679551  1.0000
  H   H14       1.0  0.7264082643404586  0.005001411802107875  0.6434901032948211  1.0000
  H   H15       1.0  0.7264082640398732  0.4949985884436726  0.14349010323932734  1.0000
  H   H16       1.0  0.2735917357019901  0.9949985886894531  0.3565098970341351  1.0000
  H   H17       1.0  0.3513343047414516  0.6915084988722893  0.954944600412114  1.0000
  H   H18       1.0  0.648665695598695  0.19150850072315798  0.5450553995137852  1.0000
  H   H19       1.0  0.6486656952981097  0.30849149952262245  0.045055399458291435  1.0000
  H   H20       1.0  0.35133430444086633  0.808491499768403  0.45494460035662027  1.0000
  H   H21       1.0  0.16590552570676617  0.7138390049719268  0.872664840136262  1.0000
  H   H22       1.0  0.8340944740560178  0.21383900472614634  0.6273351596679635  1.0000
  H   H23       1.0  0.834094474332795  0.28616099551963414  0.1273351597341435  1.0000
  H   H24       1.0  0.16590552598354355  0.7861609957654145  0.37266484020244195  1.0000
  H   H25       1.0  0.05642651561077201  0.9093853940084369  0.9079156474295137  1.0000
  H   H26       1.0  0.9435734841520119  0.40938539376265654  0.5920843523747118  1.0000
  H   H27       1.0  0.9435734844287892  0.09061460648312392  0.0920843524408918  1.0000
  H   H28       1.0  0.05642651588754939  0.5906146067289043  0.4079156474956936  1.0000
  H   H29       1.0  0.21316799931371555  0.4408110610002039  0.04087843415471477  1.0000
  H   H30       1.0  0.7868320010026232  0.9408110612459845  0.4591215657818707  1.0000
  H   H31       1.0  0.7868320007287332  0.559188939491357  0.9591215661742415  1.0000
  H   H32       1.0  0.21316799903693812  0.05918893924557652  0.5408784340885348  1.0000
  H   H33       1.0  0.3225260753394419  0.2415967248073111  0.007857254149422907  1.0000
  H   H34       1.0  0.6774739243995341  0.7415967250530915  0.49214274566548877  1.0000
  H   H35       1.0  0.6774739241227568  0.7584032735876007  0.9921427455993089  1.0000
  H   H36       1.0  0.32252607564002717  0.2584032733418203  0.5078572542049168  1.0000
  H   H37       1.0  0.08175260174740703  0.4454352436930082  0.025512078123670442  1.0000
  H   H38       1.0  0.9182473979944564  0.9454352439387885  0.47448792214979196  1.0000
  H   H39       1.0  0.9182473982950417  0.5545647567985527  0.9744879222052857  1.0000
  H   H40       1.0  0.08175260204799233  0.05456475655277227  0.5255120781791643  1.0000
  H   H41       1.0  0.46246764049873174  0.47583411266806896  0.7858861420980379  1.0000
  H   H42       1.0  0.5375323598443023  0.9758341108172003  0.7141138582864124  1.0000
  H   H43       1.0  0.5375323595437169  0.5241658878234919  0.21411385823091852  1.0000
  H   H44       1.0  0.46246764019814646  0.024165887577711483  0.2858861420425439  1.0000
  H   H45       1.0  0.6743506701049762  0.282150818617674  0.909693766365036  1.0000
  H   H46       1.0  0.32564933023805787  0.7821508167668053  0.5903062340194141  1.0000
  H   H47       1.0  0.3256493299374726  0.7178491818738869  0.09030623396392029  1.0000
  H   H48       1.0  0.6743506698043908  0.21784918162810643  0.4096937663095422  1.0000
  H   H49       1.0  0.2360592161414498  0.2818766293292726  0.7613704562842489  1.0000
  H   H50       1.0  0.7639407836213341  0.781876629575053  0.7386295435199766  1.0000
  H   H51       1.0  0.7639407838981115  0.7181233711622883  0.23862954358615654  1.0000
  H   H52       1.0  0.23605921641822716  0.21812337091650785  0.2613704563504289  1.0000
  H   H53       1.0  0.11540234845916965  0.43572331757401483  0.7835150689367787  1.0000
  H   H54       1.0  0.884597651880977  0.9357233178197953  0.7164849309891206  1.0000
  H   H55       1.0  0.8845976515803916  0.564276682917546  0.2164849309336268  1.0000
  H   H56       1.0  0.11540234815858437  0.06427668267176558  0.28351506888128486  1.0000
  H   H57       1.0  0.9890966716554136  0.27123217867873267  0.7148010996854337  1.0000
  H   H58       1.0  0.010903328684733123  0.771232176827864  0.7851989002404657  1.0000
  H   H59       1.0  0.010903328384147828  0.7287678218128282  0.28519890018497174  1.0000
  H   H60       1.0  0.989096671354828  0.22876782156704775  0.2148010996299399  1.0000
  H   H61       1.0  0.9860110953395735  0.9545211085345096  0.6237903534282037  1.0000
  H   H62       1.0  0.01398890442321022  0.4545211082887291  0.8762096463760218  1.0000
  H   H63       1.0  0.0139889046999876  0.04547889195705136  0.3762096464422019  1.0000
  H   H64       1.0  0.9860110956163513  0.5454788922028319  0.12379035349438361  1.0000
  H   H65       1.0  0.05299832168798018  0.6829779884049867  0.5661818643970968  1.0000
  H   H66       1.0  0.9470016786521663  0.18297799025585534  0.9338181355288026  1.0000
  H   H67       1.0  0.9470016783515811  0.3170220099899251  0.43381813547330866  1.0000
  H   H68       1.0  0.05299832138739489  0.8170220102357055  0.066181864341603  1.0000
  H   H69       1.0  0.15345814295495275  0.6842131306903251  0.5830366945612124  1.0000
  H   H70       1.0  0.8465418568078311  0.18421313044454465  0.9169633052430133  1.0000
  H   H71       1.0  0.8465418570846086  0.31578686980123577  0.4169633053091932  1.0000
  H   H72       1.0  0.15345814323173013  0.8157868700470162  0.08303669462739229  1.0000
  H   H73       1.0  0.37312735660866797  0.9602178803065365  0.6985461908844167  1.0000
  H   H74       1.0  0.626872643154116  0.4602178800607562  0.8014538089198088  1.0000
  H   H75       1.0  0.6268726434308933  0.03978212018502422  0.3014538089859887  1.0000
  H   H76       1.0  0.3731273568854453  0.5397821204308046  0.19854619095059675  1.0000
  H   H77       1.0  0.3265458592186791  0.17841051143844636  0.7395340206651725  1.0000
  H   H78       1.0  0.6734541405441048  0.6784105116842268  0.760465979139053  1.0000
  H   H79       1.0  0.6734541402435195  0.8215894890531146  0.2604659790835591  1.0000
  H   H80       1.0  0.3265458594954565  0.32158948880733407  0.23953402073135252  1.0000
  C   C1        1.0  0.440780242068738  0.022738484664905096  0.904518426719785  1.0000
  C   C2        1.0  0.5592197576969332  0.5227384849106855  0.5954815735429914  1.0000
  C   C3        1.0  0.5592197579737107  0.9772615137300066  0.09548157360917132  1.0000
  C   C4        1.0  0.44078024234551544  0.4772615134842262  0.4045184267859649  1.0000
  C   C5        1.0  0.5043429918304985  0.19116346146776242  0.9285850940767223  1.0000
  C   C6        1.0  0.4956570085125355  0.6911634617135428  0.5714149063077278  1.0000
  C   C7        1.0  0.49565700821195025  0.8088365369271493  0.07141490625223407  1.0000
  C   C8        1.0  0.5043429915270258  0.3088365366813689  0.4285850935626776  1.0000
  C   C9        1.0  0.5710251169584927  0.15220168040993004  0.907081909885678  1.0000
  C   C10       1.0  0.4289748828042913  0.6522016806557105  0.5929180899185477  1.0000
  C   C11       1.0  0.4289748830810687  0.8477983179849818  0.09291808998472759  1.0000
  C   C12       1.0  0.5710251172352699  0.3477983177392013  0.40708190995185783  1.0000
  C   C13       1.0  0.5748596620157408  0.9431098315322155  0.8627719117505155  1.0000
  C   C14       1.0  0.4251403383244058  0.4431098312864351  0.6372280881753838  1.0000
  C   C15       1.0  0.4251403380238205  0.056890168959345365  0.13722808811989  1.0000
  C   C16       1.0  0.5748596617151555  0.5568901692051258  0.3627719116950216  1.0000
  C   C17       1.0  0.5114373388231489  0.7721639235025878  0.8396156125946678  1.0000
  C   C18       1.0  0.4885626615169977  0.2721639232568074  0.6603843873312315  1.0000
  C   C19       1.0  0.48856266121641234  0.22783607698897307  0.1603843872757377  1.0000
  C   C20       1.0  0.5114373385225636  0.7278360772347535  0.33961561253917394  1.0000
  C   C21       1.0  0.4423039477939148  0.8066295705191973  0.8598274639998291  1.0000
  C   C22       1.0  0.5576960519688692  0.3066295702734168  0.6401725358043966  1.0000
  C   C23       1.0  0.5576960522456464  0.19337042997236364  0.1401725358705765  1.0000
  C   C24       1.0  0.4423039480706922  0.693370430218144  0.35982746406600896  1.0000
  C   C25       1.0  0.3755503674498764  0.6422471114309446  0.8334597214250248  1.0000
  C   C26       1.0  0.6244496323129075  0.14224711118516414  0.6665402783792009  1.0000
  C   C27       1.0  0.624449632589685  0.3577528890606163  0.16654027844538083  1.0000
  C   C28       1.0  0.37555036772665373  0.8577528893063967  0.3334597214912046  1.0000
  C   C29       1.0  0.30365163018052227  0.7037461952842172  0.8542382375112856  1.0000
  C   C30       1.0  0.6963483701625117  0.20374619503843677  0.6457617628731646  1.0000
  C   C31       1.0  0.6963483698619264  0.2962538052073436  0.14576176281767078  1.0000
  C   C32       1.0  0.303651629879937  0.7962538054531241  0.3542382374557917  1.0000
  C   C33       1.0  0.3216615873860236  0.8448916159004013  0.9189060647313281  1.0000
  C   C34       1.0  0.6783384123796478  0.34489161775126986  0.5810939355314483  1.0000
  C   C35       1.0  0.6783384126564252  0.1551083824945106  0.0810939355976282  1.0000
  C   C36       1.0  0.3216615876628009  0.655108382740291  0.418906064797508  1.0000
  C   C37       1.0  0.25288868675131787  0.963104263764515  0.9373876257079967  1.0000
  C   C38       1.0  0.7471113135917162  0.4631042656153837  0.5626123746764533  1.0000
  C   C39       1.0  0.7471113132911309  0.03689573463039672  0.06261237462095946  1.0000
  C   C40       1.0  0.25288868645073254  0.5368957348761771  0.43738762565250294  1.0000
  C   C41       1.0  0.1773143143867248  0.873164285584832  0.9097142670511895  1.0000
  C   C42       1.0  0.8226856853760591  0.3731642874357006  0.590285732753036  1.0000
  C   C43       1.0  0.8226856850754738  0.12683571281007977  0.09028573269754213  1.0000
  C   C44       1.0  0.17731431466350214  0.6268357130558602  0.4097142671173695  1.0000
  C   C45       1.0  0.11508120942704549  0.9818670236657664  0.9291410037924435  1.0000
  C   C46       1.0  0.8849187903357384  0.4818670234199859  0.5708589960117822  1.0000
  C   C47       1.0  0.8849187906125159  0.01813297682579453  0.07085899607796216  1.0000
  C   C48       1.0  0.11508120970382286  0.5181329749749258  0.42914100385862325  1.0000
  C   C49       1.0  0.12769288487555044  0.1859338000560768  0.9766996472237954  1.0000
  C   C50       1.0  0.872307115464596  0.6859338003018572  0.523300352702104  1.0000
  C   C51       1.0  0.8723071151640109  0.8140662004354842  0.02330035264661012  1.0000
  C   C52       1.0  0.12769288457496517  0.31406620018970366  0.4766996471683015  1.0000
  C   C53       1.0  0.20296225912194998  0.27911221214378423  0.004537483095445382  1.0000
  C   C54       1.0  0.797037740617026  0.7791122123895647  0.4954625167194663  1.0000
  C   C55       1.0  0.7970377409176113  0.7208877883477766  0.9954625167749602  1.0000
  C   C56       1.0  0.20296225942253526  0.2208877881019962  0.5045374831509392  1.0000
  C   C57       1.0  0.2645640207076733  0.1664223120782576  0.9853135386654504  1.0000
  C   C58       1.0  0.7354359796353607  0.6664223123240381  0.5146864617189997  1.0000
  C   C59       1.0  0.7354359793347754  0.8335776884133033  0.01468646166350585  1.0000
  C   C60       1.0  0.264564020407088  0.3335776881675228  0.4853135386099566  1.0000
  C   C61       1.0  0.2555961029431878  0.930082300141113  0.6684207570502182  1.0000
  C   C62       1.0  0.7444038973969587  0.4300822998953326  0.8315792428756812  1.0000
  C   C63       1.0  0.7444038970963734  0.06991770035044789  0.3315792428201873  1.0000
  C   C64       1.0  0.2555961026426025  0.5699177005962284  0.1684207569947243  1.0000
  C   C65       1.0  0.1817269207050986  0.027508134970162634  0.6795717961326069  1.0000
  C   C66       1.0  0.8182730796379354  0.5275081352159431  0.8204282042518433  1.0000
  C   C67       1.0  0.8182730793373502  0.9724918634247491  0.3204282041963494  1.0000
  C   C68       1.0  0.1817269204045133  0.47249186317896874  0.17957179607711307  1.0000
  C   C69       1.0  0.18152201399704768  0.2073838036820825  0.7308036025560857  1.0000
  C   C70       1.0  0.8184779857657362  0.7073838039278629  0.7691963972481397  1.0000
  C   C71       1.0  0.8184779860425135  0.7926161968094784  0.26919639731431977  1.0000
  C   C72       1.0  0.1815220136964624  0.2926161965636979  0.23080360250059187  1.0000
  C   C73       1.0  0.11365708341892108  0.2964961568788888  0.7437129437490654  1.0000
  C   C74       1.0  0.8863429163467502  0.7964961571246693  0.756287056513711  1.0000
  C   C75       1.0  0.8863429166235276  0.703503843612672  0.25628705657989087  1.0000
  C   C76       1.0  0.11365708369569848  0.20350384336689162  0.24371294381524536  1.0000
  C   C77       1.0  0.042901090608109774  0.2033855839700421  0.7050573042617146  1.0000
  C   C78       1.0  0.9570989091546741  0.7033855842158225  0.794942695542511  1.0000
  C   C79       1.0  0.9570989094314514  0.7966144165215188  0.2949426956086909  1.0000
  C   C80       1.0  0.04290109030752448  0.2966144162757383  0.20505730420622073  1.0000
  C   C81       1.0  0.04095144900545658  0.02695261520646404  0.6542209325747106  1.0000
  C   C82       1.0  0.9590485507602148  0.5269526154522445  0.8457790676880657  1.0000
  C   C83       1.0  0.9590485510369919  0.9730473852850968  0.34577906775424555  1.0000
  C   C84       1.0  0.040951449282233966  0.4730473850393164  0.15422093264089062  1.0000
  C   C85       1.0  0.10943797270954839  0.938843096064287  0.6396219936993529  1.0000
  C   C86       1.0  0.8905620270561229  0.43884309581850645  0.8603780065634233  1.0000
  C   C87       1.0  0.8905620273329002  0.06115690442727396  0.36037800662960334  1.0000
  C   C88       1.0  0.10943797298632577  0.5611569025764053  0.13962199376553291  1.0000
  N   N1        1.0  0.32206625717287296  0.02370130787285535  0.7062664403964087  1.0000
  N   N2        1.0  0.677933743170161  0.5237013081186358  0.7937335599880413  1.0000
  N   N3        1.0  0.6779337428695758  0.9762986926187056  0.29373355993254757  1.0000
  N   N4        1.0  0.32206625687228774  0.4762986923729251  0.2062664403409149  1.0000
  N   N5        1.0  0.10373198876225095  0.7852070288033386  0.5847281159390152  1.0000
  N   N6        1.0  0.8962680110005329  0.28520703065420727  0.9152718838652104  1.0000
  N   N7        1.0  0.8962680106999477  0.21479296959157318  0.4152718838097165  1.0000
  N   N8        1.0  0.10373198903902833  0.7147929698373536  0.08472811600519516  1.0000
  O   O1        1.0  0.3755845125599159  0.07823663166530967  0.9227600506777918  1.0000
  O   O2        1.0  0.6244154872028681  0.5782366319110901  0.5772399491264337  1.0000
  O   O3        1.0  0.6244154874796454  0.9217633688262512  0.0772399491926137  1.0000
  O   O4        1.0  0.3755845128366932  0.42176336858047075  0.42276005074397177  1.0000
  O   O5        1.0  0.06524886538069975  0.28677286272837793  0.9945739962878261  1.0000
  O   O6        1.0  0.9347511349594468  0.7867728629741584  0.5054260036380732  1.0000
  O   O7        1.0  0.9347511346588614  0.7132271377631829  0.005426003582579397  1.0000
  O   O8        1.0  0.06524886508011447  0.2132271375174025  0.4945739962323322  1.0000
  O   O9        1.0  0.37493328651755103  0.45315335085003045  0.792388973154393  1.0000
  O   O10       1.0  0.6250667138225956  0.9531533510958108  0.7076110267715062  1.0000
  O   O11       1.0  0.6250667135220103  0.5468466496415304  0.20761102671601242  1.0000
  O   O12       1.0  0.37493328621696576  0.046846649395749985  0.2923889730988992  1.0000
  O   O13       1.0  0.5147228987705686  0.5719912949604886  0.7967475347464253  1.0000
  O   O14       1.0  0.4852771009922152  0.07199129471470822  0.7032524650578003  1.0000
  O   O15       1.0  0.48527710126899254  0.42800870553107223  0.20325246512398018  1.0000
  O   O16       1.0  0.5147228990473459  0.9280087057768527  0.29674753481260524  1.0000
  O   O17       1.0  0.6309860611182418  0.32345215607702926  0.9304004013877235  1.0000
  O   O18       1.0  0.36901393864742943  0.8234521563228098  0.5695995988750527  1.0000
  O   O19       1.0  0.36901393892131934  0.6765478444145316  0.06959959848268188  1.0000
  O   O20       1.0  0.6309860613950192  0.1765478441687512  0.4304004014539035  1.0000
  O   O21       1.0  0.25650068282343963  0.7573910365532383  0.6241169223477273  1.0000
  O   O22       1.0  0.7434993175167068  0.25739103630745785  0.8758830775781721  1.0000
  O   O23       1.0  0.7434993172161217  0.24260896393832254  0.37588307752267813  1.0000
  O   O24       1.0  0.25650068252285435  0.742608964184103  0.12411692229223348  1.0000
