data_image0
_chemical_formula_structural       H52C54N8O10
_chemical_formula_sum              "H52 C54 N8 O10"
_cell_length_a       8.838155520666515
_cell_length_b       10.73187085168034
_cell_length_c       13.144827690727043
_cell_angle_alpha    70.1540693750978
_cell_angle_beta     81.79150142742411
_cell_angle_gamma    78.9748643045995

_space_group_name_H-M_alt    "P 1"
_space_group_IT_number       1

loop_
  _space_group_symop_operation_xyz
  'x, y, z'

loop_
  _atom_site_type_symbol
  _atom_site_label
  _atom_site_symmetry_multiplicity
  _atom_site_fract_x
  _atom_site_fract_y
  _atom_site_fract_z
  _atom_site_occupancy
  H   H1        1.0  0.26024624181130007  0.1490339732882337  0.8131508774549082  1.0000
  H   H2        1.0  0.7397537579720914  0.8509660268657244  0.18684912254970978  1.0000
  H   H3        1.0  0.4934416729824567  0.258618215205322  0.7830453746236219  1.0000
  H   H4        1.0  0.5065583268009349  0.7413817849486362  0.2169546253809961  1.0000
  H   H5        1.0  0.31713553479623174  0.4590175058975376  0.0027330955342245184  1.0000
  H   H6        1.0  0.6828644649871599  0.5409824942564208  0.9972669044703936  1.0000
  H   H7        1.0  0.06630083783733066  0.3658037500661677  0.03616059833927414  1.0000
  H   H8        1.0  0.933699161946061  0.6341962500877906  0.9638394016653439  1.0000
  H   H9        1.0  0.12942908758091856  0.8974654653055573  0.8073787638073143  1.0000
  H   H10       1.0  0.8705709122024731  0.10253453484840103  0.1926212361973037  1.0000
  H   H11       1.0  0.33366192005908657  0.9131032340200732  0.6541983902212685  1.0000
  H   H12       1.0  0.6663380808686296  0.0868967661272019  0.34580160967383344  1.0000
  H   H13       1.0  0.28206793802215663  0.07444539390116023  0.4706851195808567  1.0000
  H   H14       1.0  0.7179320619310052  0.9255546052503348  0.5293148806816044  1.0000
  H   H15       1.0  0.026196850014213364  0.22226948015009776  0.44215507817028665  1.0000
  H   H16       1.0  0.9738031509135027  0.7777305199971775  0.5578449217248154  1.0000
  H   H17       1.0  0.8230310459380138  0.20485820718146816  0.5944392199635137  1.0000
  H   H18       1.0  0.17696895384537786  0.7951417929724901  0.40556078004110446  1.0000
  H   H19       1.0  0.5725381900158685  0.02702895102558421  0.9323387830216232  1.0000
  H   H20       1.0  0.4274618109118477  0.972971049121691  0.06766121687347881  1.0000
  H   H21       1.0  0.37098397840980535  0.8850225508549562  0.9537679551446867  1.0000
  H   H22       1.0  0.6290160213735864  0.11497744929900199  0.046232044859931494  1.0000
  H   H23       1.0  0.628855710234723  0.7306978340878004  0.7060986125478959  1.0000
  H   H24       1.0  0.3711442895486687  0.26930216606615776  0.29390138745672223  1.0000
  H   H25       1.0  0.8271165387352538  0.8727199897985854  0.6862349615584087  1.0000
  H   H26       1.0  0.17288346218935297  0.12728001035359798  0.3137650375748864  1.0000
  H   H27       1.0  0.04295883384614451  0.15245072117189323  0.8068705250012949  1.0000
  H   H28       1.0  0.9570411670815716  0.8475492789753819  0.19312947489380705  1.0000
  H   H29       1.0  0.2870640053292475  0.7202009722414555  0.902085044878816  1.0000
  H   H30       1.0  0.7129359944541442  0.27979902791250255  0.09791495512580206  1.0000
  H   H31       1.0  0.381960924193694  0.6626156705230338  0.796362518092116  1.0000
  H   H32       1.0  0.6180390755896977  0.33738432963092424  0.20363748191250217  1.0000
  H   H33       1.0  0.9744510502511164  0.39660812630040065  0.5934396915237156  1.0000
  H   H34       1.0  0.0255489497020455  0.6033918728510944  0.40656030873874555  1.0000
  H   H35       1.0  0.23029119257426425  0.475137473656845  0.5507933783362786  1.0000
  H   H36       1.0  0.7697088072091275  0.5248625264971133  0.4492066216683395  1.0000
  H   H37       1.0  0.10992920118952065  0.6709600348375987  0.7949208917893088  1.0000
  H   H38       1.0  0.8900707985938711  0.32903996531635954  0.2050791082153093  1.0000
  H   H39       1.0  0.8570022830074961  0.5877255854828318  0.8382839600746339  1.0000
  H   H40       1.0  0.14299771677589573  0.4122744146711263  0.1617160399299842  1.0000
  H   H41       1.0  0.5620341111784721  0.41860599731507897  0.8555840559762597  1.0000
  H   H42       1.0  0.43796588860491953  0.5813940028388792  0.14441594402835847  1.0000
  H   H43       1.0  0.37862780911194255  0.6185450793848876  0.5792838599012105  1.0000
  H   H44       1.0  0.6213721908412192  0.38145491976660756  0.42071614036125066  1.0000
  H   H45       1.0  0.5070606728546828  0.8136432895147291  0.48608127834863524  1.0000
  H   H46       1.0  0.49293932692870884  0.18635671063922898  0.513918721655983  1.0000
  H   H47       1.0  0.4356771034229216  0.8478952551244933  0.35766508117831636  1.0000
  H   H48       1.0  0.56432289636047  0.15210474502946492  0.6423349188263018  1.0000
  H   H49       1.0  0.6308856147704106  0.7678030600547132  0.38102889937443535  1.0000
  H   H50       1.0  0.3691143861573055  0.2321969400925618  0.6189711005206666  1.0000
  H   H51       1.0  0.41128872779001874  0.6293438780592769  0.4047912760406513  1.0000
  H   H52       1.0  0.5887112719933728  0.37065612209468124  0.5952087239639668  1.0000
  C   C1        1.0  0.13900334162215042  0.2547867849594718  0.9246913126257645  1.0000
  C   C2        1.0  0.8609966594753361  0.7452132141853403  0.07530868752718034  1.0000
  C   C3        1.0  0.2621705996469707  0.22134150786989662  0.8542300619185588  1.0000
  C   C4        1.0  0.7378294012807455  0.7786584922773785  0.14576993797654306  1.0000
  C   C5        1.0  0.3948884111327755  0.2794546319570753  0.8381247047478759  1.0000
  C   C6        1.0  0.6051115888203864  0.7205453671944198  0.16187529551458502  1.0000
  C   C7        1.0  0.2969607409993482  0.39240493230173273  0.9607736236616458  1.0000
  C   C8        1.0  0.7030392587840434  0.6075950678522255  0.03922637634297242  1.0000
  C   C9        1.0  0.15952624367470686  0.34030289986830153  0.979822951158309  1.0000
  C   C10       1.0  0.8404737561086849  0.6596971002856566  0.020177048846309113  1.0000
  C   C11       1.0  0.9874772874301614  0.2039287051578292  0.9458371582737044  1.0000
  C   C12       1.0  0.01252271235323029  0.796071294996129  0.05416284173091368  1.0000
  C   C13       1.0  0.8390466677890589  0.034330011862226  0.8032227157277742  1.0000
  C   C14       1.0  0.16095333199433282  0.9656699882917321  0.19677728427684393  1.0000
  C   C15       1.0  0.961956444604  0.047700006836102156  0.7106773526505707  1.0000
  C   C16       1.0  0.03804355632371619  0.9522999933111729  0.2893226472445311  1.0000
  C   C17       1.0  0.10769109157608045  0.9676512964942501  0.7268026185823465  1.0000
  C   C18       1.0  0.8923089082073111  0.03234870365970808  0.27319738142227185  1.0000
  C   C19       1.0  0.2220140709668742  0.9772498204736434  0.6405865660616895  1.0000
  C   C20       1.0  0.7779859288165175  0.02275017968031474  0.3594134339429285  1.0000
  C   C21       1.0  0.19307122231384813  0.06816593230074561  0.5380485242635431  1.0000
  C   C22       1.0  0.8069287774695435  0.9318340678532127  0.46195147574107503  1.0000
  C   C23       1.0  0.04954086930833729  0.14999470113742094  0.5217807346701554  1.0000
  C   C24       1.0  0.9504591304750545  0.8500052990165372  0.47821926533446274  1.0000
  C   C25       1.0  0.9341662154735646  0.13974823914029882  0.6073926833621475  1.0000
  C   C26       1.0  0.06583378430982707  0.8602517610136594  0.39260731664247056  1.0000
  C   C27       1.0  0.7155395572462084  0.9594566085576431  0.8090129004622264  1.0000
  C   C28       1.0  0.2844604425371832  0.04054339159631513  0.19098709954239174  1.0000
  C   C29       1.0  0.5839304831248858  0.9612772056147579  0.8836354913063873  1.0000
  C   C30       1.0  0.4160695179726005  0.038722793530054145  0.11636450884655745  1.0000
  C   C31       1.0  0.4719987867029612  0.8826225379809886  0.895568851664429  1.0000
  C   C32       1.0  0.5280012130804304  0.11737746217296967  0.10443114834018903  1.0000
  C   C33       1.0  0.4876431820570951  0.7947502702480077  0.8334845167208143  1.0000
  C   C34       1.0  0.5123568190403913  0.20524972889680446  0.16651548343213055  1.0000
  C   C35       1.0  0.6152944831605663  0.7968983120983124  0.7550077659555056  1.0000
  C   C36       1.0  0.3847055166228253  0.20310168805564593  0.2449922340491126  1.0000
  C   C37       1.0  0.7264709602046306  0.876814792654978  0.7439790301537464  1.0000
  C   C38       1.0  0.273529039578761  0.12318520749898017  0.25602096985087175  1.0000
  C   C39       1.0  0.8991605316814846  0.48584800764636477  0.7195700993407557  1.0000
  C   C40       1.0  0.10083946827167727  0.5141519915051304  0.2804299009217052  1.0000
  C   C41       1.0  0.005221124138141152  0.4560341848174164  0.6377409835961088  1.0000
  C   C42       1.0  0.9947788756452504  0.5439658153365418  0.36225901640850927  1.0000
  C   C43       1.0  0.14823199785050656  0.4998665953522686  0.6138657659461861  1.0000
  C   C44       1.0  0.851768001932885  0.5001334048016897  0.386134234058432  1.0000
  C   C45       1.0  0.187796394397166  0.5768758724124307  0.6714265003796358  1.0000
  C   C46       1.0  0.8122036053862256  0.4231241277415275  0.32857349962498233  1.0000
  C   C47       1.0  0.08104110044429269  0.6084784309816943  0.7524876627797817  1.0000
  C   C48       1.0  0.9189588993390989  0.39152156917226394  0.2475123372248363  1.0000
  C   C49       1.0  0.9398864151847537  0.5623825801234817  0.776344400901135  1.0000
  C   C50       1.0  0.06011358459863791  0.43761742003047643  0.22365559910348318  1.0000
  C   C51       1.0  0.747757963173636  0.4372366487546099  0.7460228740391212  1.0000
  C   C52       1.0  0.25224203660975575  0.5627633513993483  0.25397712596549693  1.0000
  C   C53       1.0  0.5111976767772145  0.7757682146854712  0.4178492948302447  1.0000
  C   C54       1.0  0.4888023230061771  0.22423178546848693  0.5821507051743734  1.0000
  N   N1        1.0  0.9635739831112022  0.14808303733867156  0.8722278904828814  1.0000
  N   N2        1.0  0.0364260166721895  0.8519169628152866  0.1277721095217367  1.0000
  N   N3        1.0  0.41151061438773645  0.36436981116708855  0.8890840256264231  1.0000
  N   N4        1.0  0.5884893853956552  0.6356301889868696  0.11091597437819499  1.0000
  N   N5        1.0  0.8412924080743702  0.08399875862988666  0.881453389137817  1.0000
  N   N6        1.0  0.15870759170902146  0.9160012415240714  0.11854661086680113  1.0000
  N   N7        1.0  0.38373999378206314  0.7097130647787745  0.851321283108545  1.0000
  N   N8        1.0  0.6162600061710987  0.29028693437272063  0.14867871715391603  1.0000
  O   O1        1.0  0.8939219378920358  0.21402046944893854  0.023891057679390825  1.0000
  O   O2        1.0  0.1060780618913558  0.7859795307050196  0.9761089423252274  1.0000
  O   O3        1.0  0.6704774888467452  0.45615829262280944  0.8347738295711231  1.0000
  O   O4        1.0  0.3295225122507413  0.5438417065220027  0.1652261705818218  1.0000
  O   O5        1.0  0.6998395479158953  0.3825231714562488  0.689455619464099  1.0000
  O   O6        1.0  0.30016045301182087  0.6174768286910263  0.3105443804310031  1.0000
  O   O7        1.0  0.3250133541142659  0.6222308675097924  0.6522154693334514  1.0000
  O   O8        1.0  0.6749866458388959  0.37776913164170267  0.3477845309290096  1.0000
  O   O9        1.0  0.4626256972431512  0.6464854409542409  0.45993913412292725  1.0000
  O   O10       1.0  0.5373743025402404  0.35351455919971736  0.5400608658816909  1.0000
