data_image0
_chemical_formula_structural       H8C20O4Br4
_chemical_formula_sum              "H8 C20 O4 Br4"
_cell_length_a       7.9827681330465685
_cell_length_b       7.953317540406269
_cell_length_c       7.566804594151068
_cell_angle_alpha    82.89519670510047
_cell_angle_beta     94.86051069164428
_cell_angle_gamma    113.33820221788974

_space_group_name_H-M_alt    "P 1"
_space_group_IT_number       1

loop_
  _space_group_symop_operation_xyz
  'x, y, z'

loop_
  _atom_site_type_symbol
  _atom_site_label
  _atom_site_symmetry_multiplicity
  _atom_site_fract_x
  _atom_site_fract_y
  _atom_site_fract_z
  _atom_site_occupancy
  H   H1        1.0  0.3481432440044033  0.8505374902322687  0.10687697588804786  1.0000
  H   H2        1.0  0.6518567553594606  0.1494625091784274  0.8931230242299601  1.0000
  H   H3        1.0  0.17629326290953787  0.5635638866034776  0.9600230512300543  1.0000
  H   H4        1.0  0.8237067377198477  0.4364361128579787  0.03997694882418896  1.0000
  H   H5        1.0  0.6434910517349635  0.14200941071713608  0.3989283883177278  1.0000
  H   H6        1.0  0.3565089476289003  0.8579905886935599  0.6010716118002802  1.0000
  H   H7        1.0  0.8175341668041964  0.4257463757921959  0.5480013914589922  1.0000
  H   H8        1.0  0.1824658338251891  0.5742536236692605  0.45199860859525104  1.0000
  C   C1        1.0  0.6901862594925965  0.6850333526302425  0.10364514824245662  1.0000
  C   C2        1.0  0.30981373987126737  0.3149666467804535  0.8963548518755514  1.0000
  C   C3        1.0  0.6030333895698269  0.8113905165448048  0.1381657432327306  1.0000
  C   C4        1.0  0.3969666097940369  0.18860948286589124  0.8618342568852774  1.0000
  C   C5        1.0  0.41151333892489966  0.75769843102166  0.08184388698740724  1.0000
  C   C6        1.0  0.5884866622050751  0.24230156980729647  0.9181561130779278  1.0000
  C   C7        1.0  0.3192542502788781  0.6009922421754935  0.002988511478817463  1.0000
  C   C8        1.0  0.6807457490849856  0.39900775723520243  0.9970114886391906  1.0000
  C   C9        1.0  0.5961550622120164  0.5231538734238929  0.026470208310544103  1.0000
  C   C10       1.0  0.40384493841736924  0.4768461260375634  0.973529791743699  1.0000
  C   C11       1.0  0.3079804804694515  0.3171436736414322  0.39512480486608836  1.0000
  C   C12       1.0  0.6920195188944124  0.6828563257692638  0.6048751952519198  1.0000
  C   C13       1.0  0.3928365783878193  0.18878115310040314  0.3605099541842585  1.0000
  C   C14       1.0  0.607163422241566  0.8112188463610529  0.6394900458699846  1.0000
  C   C15       1.0  0.5824753233707523  0.23748267796334493  0.4214579985125185  1.0000
  C   C16       1.0  0.41752467649370095  0.7625173228148517  0.5785420016165816  1.0000
  C   C17       1.0  0.676341979073079  0.39316154771613515  0.5011749074298307  1.0000
  C   C18       1.0  0.3236580207913742  0.6068384530620614  0.4988250926992694  1.0000
  C   C19       1.0  0.4043098941583863  0.4787424152951391  0.47212210160620893  1.0000
  C   C20       1.0  0.5956901064709992  0.5212575841663171  0.5278778984480341  1.0000
  O   O1        1.0  0.6888539427796049  0.9538508181080576  0.21244963683482804  1.0000
  O   O2        1.0  0.31114605835037  0.046149182720898976  0.787550363230507  1.0000
  O   O3        1.0  0.3062702861349711  0.048420942509246084  0.28340537394508286  1.0000
  O   O4        1.0  0.6937297132288927  0.95157905690145  0.7165946261729251  1.0000
  Br  Br1       1.0  0.9379636071727373  0.7664135669086574  0.17321948579643465  1.0000
  Br  Br2       1.0  0.062036392191126444  0.23358643250203862  0.8267805143215734  1.0000
  Br  Br3       1.0  0.06040495014592405  0.2391355605590136  0.3249796741252076  1.0000
  Br  Br4       1.0  0.9395950492179398  0.7608644388516825  0.6750203259928006  1.0000
