data_image0
_chemical_formula_structural       H108B36N9I3
_chemical_formula_sum              "H108 B36 N9 I3"
_cell_length_a       13.004300513200876
_cell_length_b       13.004300513200787
_cell_length_c       9.26450428196009
_cell_angle_alpha    90.0
_cell_angle_beta     90.0
_cell_angle_gamma    120.00000000000021

_space_group_name_H-M_alt    "P 1"
_space_group_IT_number       1

loop_
  _space_group_symop_operation_xyz
  'x, y, z'

loop_
  _atom_site_type_symbol
  _atom_site_label
  _atom_site_symmetry_multiplicity
  _atom_site_fract_x
  _atom_site_fract_y
  _atom_site_fract_z
  _atom_site_occupancy
  H   H1        1.0  0.0798013928722433  0.9201986063316431  0.7557644421012275  1.0000
  H   H2        1.0  0.07980139341273149  0.15960278682546297  0.7557644421012275  1.0000
  H   H3        1.0  0.9201986064923858  0.0798013934127315  0.2442355576872027  1.0000
  H   H4        1.0  0.8403972134593998  0.9201986063316431  0.7557644421012275  1.0000
  H   H5        1.0  0.9201986071648428  0.8403972138068492  0.2442355576872027  1.0000
  H   H6        1.0  0.15960278667420583  0.07980139341273149  0.2442355576872027  1.0000
  H   H7        1.0  0.41313472650959926  0.5868652730835183  0.4224311091982136  1.0000
  H   H8        1.0  0.4131347266608563  0.8262694533217126  0.4224311091982136  1.0000
  H   H9        1.0  0.2535319399866506  0.7464680599089812  0.910902224572619  1.0000
  H   H10       1.0  0.1737305465739191  0.5868652730835183  0.4224311091982136  1.0000
  H   H11       1.0  0.2535319402793621  0.5070638805587242  0.910902224572619  1.0000
  H   H12       1.0  0.49293611992233066  0.7464680599089812  0.910902224572619  1.0000
  H   H13       1.0  0.746468060146955  0.25353193983539335  0.08909777629519973  1.0000
  H   H14       1.0  0.7464680602982122  0.4929361200735879  0.08909777629519973  1.0000
  H   H15       1.0  0.5868652736240063  0.4131347266608563  0.5775688905902167  1.0000
  H   H16       1.0  0.5070638802112749  0.25353193983539335  0.08909777629519973  1.0000
  H   H17       1.0  0.5868652739167179  0.17373054731059934  0.5775688905902167  1.0000
  H   H18       1.0  0.8262694535596865  0.4131347266608563  0.5775688905902167  1.0000
  H   H19       1.0  0.12538371527959755  0.8746162851565376  0.06801549773440048  1.0000
  H   H20       1.0  0.12538371503180573  0.25076743006361146  0.06801549773440048  1.0000
  H   H21       1.0  0.8746162848540081  0.125383714587837  0.9319845031334183  1.0000
  H   H22       1.0  0.74923256987694  0.8746162851565376  0.06801549773440048  1.0000
  H   H23       1.0  0.8746162855457684  0.7492325705687005  0.9319845031334183  1.0000
  H   H24       1.0  0.25076742948768915  0.125383714587837  0.9319845031334183  1.0000
  H   H25       1.0  0.45871704814797704  0.5412829519084128  0.7346821635404283  1.0000
  H   H26       1.0  0.4587170482799306  0.9174340965598612  0.7346821635404283  1.0000
  H   H27       1.0  0.2079496187922415  0.7920503819720243  0.5986511691510158  1.0000
  H   H28       1.0  0.08256590376043575  0.5412829519084128  0.7346821635404283  1.0000
  H   H29       1.0  0.20794961866028785  0.4158992373205757  0.5986511691510158  1.0000
  H   H30       1.0  0.5841007631797828  0.7920503819720243  0.5986511691510158  1.0000
  H   H31       1.0  0.7920503817853328  0.20794961866028785  0.4013488306374144  1.0000
  H   H32       1.0  0.7920503819172864  0.5841007633117363  0.4013488306374144  1.0000
  H   H33       1.0  0.5412829512166522  0.45871704783596184  0.265317836248002  1.0000
  H   H34       1.0  0.41589923662881517  0.20794961866028785  0.4013488306374144  1.0000
  H   H35       1.0  0.5412829518536749  0.08256590318451339  0.265317836248002  1.0000
  H   H36       1.0  0.9174340963731699  0.45871704783596184  0.265317836248002  1.0000
  H   H37       1.0  0.4570032402863587  0.5429967599728015  0.04577230546762533  1.0000
  H   H38       1.0  0.4570032402155419  0.9140064804310838  0.04577230546762533  1.0000
  H   H39       1.0  0.5429967595222391  0.4570032406595106  0.9542276954001934  1.0000
  H   H40       1.0  0.0859935196864428  0.5429967599728015  0.04577230546762533  1.0000
  H   H41       1.0  0.5429967599180636  0.08599351931329086  0.9542276954001934  1.0000
  H   H42       1.0  0.9140064808911316  0.4570032406595106  0.9542276954001934  1.0000
  H   H43       1.0  0.7903365739237146  0.20966342672467658  0.7124389712736531  1.0000
  H   H44       1.0  0.7903365738528978  0.5806731471829589  0.7124389712736531  1.0000
  H   H45       1.0  0.8763300931595951  0.12366990741138573  0.620894361417791  1.0000
  H   H46       1.0  0.4193268525548222  0.20966342672467658  0.7124389712736531  1.0000
  H   H47       1.0  0.8763300931661886  0.7526601858095406  0.620894361417791  1.0000
  H   H48       1.0  0.2473398140056508  0.12366990741138573  0.620894361417791  1.0000
  H   H49       1.0  0.12366990741797927  0.8763300932209264  0.3791056383706392  1.0000
  H   H50       1.0  0.123669906967417  0.247339813934834  0.3791056383706392  1.0000
  H   H51       1.0  0.20966342665385976  0.7903365739076355  0.2875610285147771  1.0000
  H   H52       1.0  0.752660185802947  0.8763300932209264  0.3791056383706392  1.0000
  H   H53       1.0  0.20966342628070786  0.4193268525614157  0.2875610285147771  1.0000
  H   H54       1.0  0.5806731472537757  0.7903365739076355  0.2875610285147771  1.0000
  H   H55       1.0  0.5204666183161384  0.4795333818235517  0.10670785072926138  1.0000
  H   H56       1.0  0.5204666187540226  0.04093323698520861  0.10670785072926138  1.0000
  H   H57       1.0  0.47953338149245955  0.5204666188087603  0.8932921490591689  1.0000
  H   H58       1.0  0.9590667632612735  0.4795333818235517  0.10670785072926138  1.0000
  H   H59       1.0  0.4795333818235517  0.9590667636471034  0.8932921490591689  1.0000
  H   H60       1.0  0.040933237316300775  0.5204666188087603  0.8932921490591689  1.0000
  H   H61       1.0  0.8537999519534942  0.14620004857542687  0.7733745176146777  1.0000
  H   H62       1.0  0.8537999520021473  0.7075999034814583  0.7733745176146777  1.0000
  H   H63       1.0  0.8128667146858466  0.187133284672698  0.559958816156155  1.0000
  H   H64       1.0  0.29240009637579284  0.14620004857542687  0.7733745176146777  1.0000
  H   H65       1.0  0.8128667150169389  0.6257334295110412  0.559958816156155  1.0000
  H   H66       1.0  0.37426656974071154  0.187133284672698  0.559958816156155  1.0000
  H   H67       1.0  0.1871332854477589  0.8128667150716766  0.44004118363227523  1.0000
  H   H68       1.0  0.1871332851166667  0.37426657023333343  0.44004118363227523  1.0000
  H   H69       1.0  0.1462000486240801  0.8537999520568852  0.22662548325314108  1.0000
  H   H70       1.0  0.6257334296239176  0.8128667150716766  0.44004118363227523  1.0000
  H   H71       1.0  0.14620004813145812  0.29240009626291624  0.22662548325314108  1.0000
  H   H72       1.0  0.7075999034328051  0.8537999520568852  0.22662548325314108  1.0000
  H   H73       1.0  0.32044182095044854  0.2951671002509838  0.02581406438180221  1.0000
  H   H74       1.0  0.704832898911183  0.0252747202919117  0.02581406438180221  1.0000
  H   H75       1.0  0.29516710087909287  0.32044182143083294  0.9741859364860166  1.0000
  H   H76       1.0  0.9747252792568578  0.6795581792014791  0.02581406438180221  1.0000
  H   H77       1.0  0.6795581789990166  0.9747252794524629  0.9741859364860166  1.0000
  H   H78       1.0  0.025274720310233815  0.7048328994933909  0.9741859364860166  1.0000
  H   H79       1.0  0.6537751546425422  0.961833767635171  0.69248073018783  1.0000
  H   H80       1.0  0.03816623284941641  0.6919413876760989  0.69248073018783  1.0000
  H   H81       1.0  0.6285004341272177  0.9871084879270826  0.6408526025036141  1.0000
  H   H82       1.0  0.30805861269638485  0.34622484506541684  0.69248073018783  1.0000
  H   H83       1.0  0.01289151211353597  0.641391946204338  0.6408526025036141  1.0000
  H   H84       1.0  0.3586080539475896  0.3714995662452659  0.6408526025036141  1.0000
  H   H85       1.0  0.9871084878359293  0.6285004334991087  0.3591473972848161  1.0000
  H   H86       1.0  0.3714995660428035  0.3586080535400366  0.3591473972848161  1.0000
  H   H87       1.0  0.9618337669955972  0.6537751546789577  0.3075192696006003  1.0000
  H   H88       1.0  0.6413919455647642  0.012891511817291946  0.3591473972848161  1.0000
  H   H89       1.0  0.3462248457508918  0.3080586129562132  0.3075192696006003  1.0000
  H   H90       1.0  0.6919413875849455  0.038166232997141086  0.3075192696006003  1.0000
  H   H91       1.0  0.6795581791831571  0.7048328994933909  0.9741859364860166  1.0000
  H   H92       1.0  0.29516710045344624  0.9747252794524629  0.9741859364860166  1.0000
  H   H93       1.0  0.7048328996984814  0.6795581792014791  0.02581406438180221  1.0000
  H   H94       1.0  0.025274720551740078  0.32044182143083294  0.9741859364860166  1.0000
  H   H95       1.0  0.32044182113458886  0.0252747202919117  0.02581406438180221  1.0000
  H   H96       1.0  0.9747252790543955  0.2951671002509838  0.02581406438180221  1.0000
  H   H97       1.0  0.34622484593503217  0.038166232997141086  0.3075192696006003  1.0000
  H   H98       1.0  0.9618337677281579  0.3080586129562132  0.3075192696006003  1.0000
  H   H99       1.0  0.37149956600638784  0.012891511817291942  0.3591473972848161  1.0000
  H   H100      1.0  0.6919413874372208  0.6537751546789577  0.3075192696006003  1.0000
  H   H101      1.0  0.9871084880200696  0.3586080535400366  0.3591473972848161  1.0000
  H   H102      1.0  0.641391946186016  0.6285004334991087  0.3591473972848161  1.0000
  H   H103      1.0  0.012891512297676308  0.3714995662452659  0.6408526025036141  1.0000
  H   H104      1.0  0.6285004340908021  0.641391946204338  0.6408526025036141  1.0000
  H   H105      1.0  0.03816623236903203  0.34622484506541684  0.69248073018783  1.0000
  H   H106      1.0  0.3586080537998649  0.9871084879270826  0.6408526025036141  1.0000
  H   H107      1.0  0.6537751548266825  0.6919413876760989  0.69248073018783  1.0000
  H   H108      1.0  0.3080586129926289  0.961833767635171  0.69248073018783  1.0000
  B   B1        1.0  0.04606645242924408  0.9539335475476874  0.8555663798908638  1.0000
  B   B2        1.0  0.04606645264065589  0.09213290528131178  0.8555663798908638  1.0000
  B   B3        1.0  0.9539335477043616  0.046066452196687174  0.14443361989756642  1.0000
  B   B4        1.0  0.9078670951184433  0.9539335475476874  0.8555663798908638  1.0000
  B   B5        1.0  0.9539335479369183  0.9078670953510002  0.14443361989756642  1.0000
  B   B6        1.0  0.09213290501516219  0.04606645219668716  0.14443361989756642  1.0000
  B   B7        1.0  0.3793997860665999  0.6206002142995626  0.5222330459084613  1.0000
  B   B8        1.0  0.37939978588878076  0.7587995717775615  0.5222330459084613  1.0000
  B   B9        1.0  0.28726688087361857  0.7127331195808744  0.8111002867829827  1.0000
  B   B10       1.0  0.2412004282329627  0.6206002142995626  0.5222330459084613  1.0000
  B   B11       1.0  0.2872668810514377  0.5745337621028754  0.8111002867829827  1.0000
  B   B12       1.0  0.4254662387072558  0.7127331195808744  0.8111002867829827  1.0000
  B   B13       1.0  0.7127331189349794  0.2872668810514377  0.18889971300544744  1.0000
  B   B14       1.0  0.7127331195261366  0.4254662385294366  0.18889971300544744  1.0000
  B   B15       1.0  0.6206002140670056  0.379399785444812  0.47776695387996887  1.0000
  B   B16       1.0  0.5745337618703186  0.2872668810514377  0.18889971300544744  1.0000
  B   B17       1.0  0.6206002142448247  0.24120042796681307  0.47776695387996887  1.0000
  B   B18       1.0  0.7587995711316665  0.379399785444812  0.47776695387996887  1.0000
  B   B19       1.0  0.0729145486714549  0.927085450938148  0.03612800855969661  1.0000
  B   B20       1.0  0.0729145488062266  0.1458290976124532  0.03612800855969661  1.0000
  B   B21       1.0  0.9270854514621506  0.07291454880622661  0.9638719912287335  1.0000
  B   B22       1.0  0.854170902266693  0.927085450938148  0.03612800855969661  1.0000
  B   B23       1.0  0.927085451327379  0.8541709021319214  0.9638719912287335  1.0000
  B   B24       1.0  0.14582909786691253  0.0729145488062266  0.9638719912287335  1.0000
  B   B25       1.0  0.4062478823088108  0.5937521176900231  0.7027946743657244  1.0000
  B   B26       1.0  0.4062478820543514  0.8124957641087028  0.7027946743657244  1.0000
  B   B27       1.0  0.2604187841874389  0.7395812153024763  0.6305386583257198  1.0000
  B   B28       1.0  0.1875042353812123  0.5937521176900231  0.7027946743657244  1.0000
  B   B29       1.0  0.26041878444189825  0.5208375688837965  0.6305386583257198  1.0000
  B   B30       1.0  0.47916243111503737  0.7395812153024763  0.6305386583257198  1.0000
  B   B31       1.0  0.7395812151771902  0.26041878444189825  0.3694613414627105  1.0000
  B   B32       1.0  0.7395812156917073  0.4791624308605781  0.3694613414627105  1.0000
  B   B33       1.0  0.5937521178247948  0.4062478820543514  0.29720532542270583  1.0000
  B   B34       1.0  0.5208375690185683  0.26041878444189825  0.3694613414627105  1.0000
  B   B35       1.0  0.5937521180792541  0.1875042356356717  0.29720532542270583  1.0000
  B   B36       1.0  0.8124957639834168  0.4062478820543514  0.29720532542270583  1.0000
  N   N1        1.0  0.5000000002614182  4.439687231969249e-18  0.0  1.0000
  N   N2        1.0  0.9999999998053846  0.49999999987218735  0.0  1.0000
  N   N3        1.0  0.5000000000668028  0.49999999987218735  0.0  1.0000
  N   N4        1.0  0.8333333335095431  0.6666666664962497  0.6666666668854163  1.0000
  N   N5        1.0  0.33333333344274035  0.16666666662406243  0.6666666668854163  1.0000
  N   N6        1.0  0.8333333329351822  0.16666666662406243  0.6666666668854163  1.0000
  N   N7        1.0  0.16666666662406243  0.33333333324812486  0.33333333290301387  1.0000
  N   N8        1.0  0.6666666666908653  0.8333333331203122  0.33333333290301387  1.0000
  N   N9        1.0  0.16666666642944697  0.8333333331203122  0.33333333290301387  1.0000
  I   I1        1.0  0.0  0.0  0.4999999998942151  1.0000
  I   I2        1.0  0.33333333324812486  0.6666666664962497  0.16666666699120122  1.0000
  I   I3        1.0  0.6666666668854807  0.33333333324812486  0.833333332797229  1.0000
