data_image0
_chemical_formula_structural       H96C80N32O16
_chemical_formula_sum              "H96 C80 N32 O16"
_cell_length_a       5.699278518900802
_cell_length_b       15.930350966768644
_cell_length_c       23.574360778509888
_cell_angle_alpha    90.0
_cell_angle_beta     90.0
_cell_angle_gamma    90.0

_space_group_name_H-M_alt    "P 1"
_space_group_IT_number       1

loop_
  _space_group_symop_operation_xyz
  'x, y, z'

loop_
  _atom_site_type_symbol
  _atom_site_label
  _atom_site_symmetry_multiplicity
  _atom_site_fract_x
  _atom_site_fract_y
  _atom_site_fract_z
  _atom_site_occupancy
  H   H1        1.0  0.5307947698936898  0.06200394718612761  0.5543583727586464  1.0000
  H   H2        1.0  0.9692052303956096  0.9379960530167152  0.05435837272704197  1.0000
  H   H3        1.0  0.03079476979725665  0.43799605322916  0.4456416273045625  1.0000
  H   H4        1.0  0.4692052302991765  0.5620039469736827  0.9456416273361671  1.0000
  H   H5        1.0  0.6905993288355919  0.12235872041150544  0.607005701000581  1.0000
  H   H6        1.0  0.8094006696990993  0.8776412797913373  0.1070057009689766  1.0000
  H   H7        1.0  0.19059933049376687  0.37764127937604963  0.39299429906262784  1.0000
  H   H8        1.0  0.30940066960266627  0.6223587201990605  0.8929942990942323  1.0000
  H   H9        1.0  0.3356782728998787  0.21662840681908738  0.5183132741032201  1.0000
  H   H10       1.0  0.16432172719655438  0.7833715927560227  0.01831327407161573  1.0000
  H   H11       1.0  0.8356782729963118  0.28337159296846764  0.48168672595998874  1.0000
  H   H12       1.0  0.6643217272929874  0.716628407234375  0.9816867259915932  1.0000
  H   H13       1.0  0.28101258513487926  0.17872723180671587  0.4146164586108376  1.0000
  H   H14       1.0  0.21898741496155386  0.8212727677683943  0.9146164586424421  1.0000
  H   H15       1.0  0.7810125852313122  0.3212727679808392  0.5853835414523713  1.0000
  H   H16       1.0  0.718987415057987  0.6787272322220035  0.08538354142076682  1.0000
  H   H17       1.0  0.9202187193707289  0.0930391962544842  0.3903819177311204  1.0000
  H   H18       1.0  0.5797812809185705  0.9069608039483584  0.8903819177627249  1.0000
  H   H19       1.0  0.4202187192742957  0.40696080416080344  0.6096180819078989  1.0000
  H   H20       1.0  0.07978128082213737  0.5930391960420393  0.10961808187629438  1.0000
  H   H21       1.0  0.9710279891826294  0.37187334807361466  0.9242289216113881  1.0000
  H   H22       1.0  0.5289720111066699  0.628126652129228  0.42422892157978365  1.0000
  H   H23       1.0  0.4710279890861963  0.12812665234167295  0.0757710784518208  1.0000
  H   H24       1.0  0.02897201101023678  0.8718733478611698  0.5757710784834252  1.0000
  H   H25       1.0  0.25960607032859284  0.35731567382753116  0.9523202334489369  1.0000
  H   H26       1.0  0.24039392976784027  0.642684325747579  0.4523202334173324  1.0000
  H   H27       1.0  0.759606070425026  0.14268432596002398  0.047679766614272034  1.0000
  H   H28       1.0  0.7403939298642733  0.8573156742428187  0.5476797666458765  1.0000
  H   H29       1.0  0.10950715216500247  0.4552556905449706  0.9607881029227076  1.0000
  H   H30       1.0  0.39049284793143063  0.544744309657872  0.4607881028911031  1.0000
  H   H31       1.0  0.6095071522614356  0.04474430924258443  0.03921189714050139  1.0000
  H   H32       1.0  0.8904928480278638  0.9552556903325258  0.5392118971721058  1.0000
  H   H33       1.0  0.3894355035710848  0.5258179589058423  0.044851490139400235  1.0000
  H   H34       1.0  0.11056449652534833  0.4741820412970004  0.5448514901710048  1.0000
  H   H35       1.0  0.889435503667518  0.9741820410845554  0.9551485099238087  1.0000
  H   H36       1.0  0.6105644966217815  0.02581795911828721  0.45514850989220423  1.0000
  H   H37       1.0  0.6417174433344547  0.3439290290232292  0.12269290680562944  1.0000
  H   H38       1.0  0.8582825569548446  0.6560709711796135  0.6226929068372339  1.0000
  H   H39       1.0  0.14171744323802155  0.1560709707643259  0.8773070932575795  1.0000
  H   H40       1.0  0.3582825568584116  0.8439290288107842  0.377307093225975  1.0000
  H   H41       1.0  0.9876115110593999  0.2261422468039162  0.1218247831609512  1.0000
  H   H42       1.0  0.5123884892298993  0.7738577533989265  0.6218247831925556  1.0000
  H   H43       1.0  0.4876115109629669  0.27385775298363885  0.8781752169022577  1.0000
  H   H44       1.0  0.012388489133466215  0.7261422465914713  0.37817521687065325  1.0000
  H   H45       1.0  0.2481024195098845  0.2589045501008578  0.026046125948820387  1.0000
  H   H46       1.0  0.2518975805865486  0.741095450101985  0.5260461259804249  1.0000
  H   H47       1.0  0.7481024196063176  0.24109544968669736  0.9739538736901988  1.0000
  H   H48       1.0  0.7518975806829817  0.7589045498884128  0.4739538736585945  1.0000
  H   H49       1.0  0.21975083790808483  0.2767254198727926  0.6672202113042504  1.0000
  H   H50       1.0  0.2802491621883483  0.7232745803300502  0.16722021127264586  1.0000
  H   H51       1.0  0.719750838004518  0.22327457991476252  0.33277978875895864  1.0000
  H   H52       1.0  0.7802491605301732  0.7767254196603476  0.8327797887905631  1.0000
  H   H53       1.0  0.06972329193636946  0.21395278654625632  0.6140229635916754  1.0000
  H   H54       1.0  0.43027670816006364  0.7860472136565865  0.11402296356007101  1.0000
  H   H55       1.0  0.5697232920328026  0.28604721386903126  0.3859770364715335  1.0000
  H   H56       1.0  0.9302767082564968  0.7139527863338114  0.8859770365031379  1.0000
  H   H57       1.0  0.43770990165280255  0.10791259424140007  0.7024589898995659  1.0000
  H   H58       1.0  0.06229009844363057  0.8920874059614426  0.20245898986796138  1.0000
  H   H59       1.0  0.9377099017492355  0.392087405546155  0.2975410101636431  1.0000
  H   H60       1.0  0.5622900985400637  0.6079125940289551  0.7975410101952475  1.0000
  H   H61       1.0  0.4892394152615954  0.14672975911679717  0.8066812249406003  1.0000
  H   H62       1.0  0.01076058483483766  0.853270240458313  0.3066812249089958  1.0000
  H   H63       1.0  0.9892394153580285  0.35327024067075796  0.19331877512260873  1.0000
  H   H64       1.0  0.5107605831766627  0.6467297595320848  0.6933187751542133  1.0000
  H   H65       1.0  0.8395189380782881  0.23793055268567245  0.8305971247309333  1.0000
  H   H66       1.0  0.6604810622110111  0.7620694468894378  0.3305971246993288  1.0000
  H   H67       1.0  0.33951893798185506  0.2620694471018826  0.1694028753322757  1.0000
  H   H68       1.0  0.16048106211457805  0.7379305531009601  0.6694028753638801  1.0000
  H   H69       1.0  0.8659698071663767  0.3950984440411675  0.6759422153463466  1.0000
  H   H70       1.0  0.6340301913683146  0.6049015561616752  0.17594221531474216  1.0000
  H   H71       1.0  0.3659698070699436  0.10490155574638757  0.3240577847168623  1.0000
  H   H72       1.0  0.1340301912718815  0.8950984438287226  0.8240577847484668  1.0000
  H   H73       1.0  0.9938486496519626  0.49706075883186773  0.6809160723727008  1.0000
  H   H74       1.0  0.5061513506373366  0.502939241370975  0.18091607234109638  1.0000
  H   H75       1.0  0.49384864955552965  0.002939240955687352  0.31908392769050814  1.0000
  H   H76       1.0  0.006151350540903475  0.9970607586194228  0.8190839277221126  1.0000
  H   H77       1.0  0.6901336172562758  0.4855901509098462  0.6644484920362749  1.0000
  H   H78       1.0  0.8098663830330235  0.5144098492929965  0.16444849200467046  1.0000
  H   H79       1.0  0.19013361715984262  0.014409848877708898  0.335551508026934  1.0000
  H   H80       1.0  0.30986638293659047  0.9855901506974013  0.8355515080585386  1.0000
  H   H81       1.0  0.1571296940534004  0.30070270203040467  0.7696776769676172  1.0000
  H   H82       1.0  0.3428703060430327  0.6992972981724381  0.26967767693601274  1.0000
  H   H83       1.0  0.6571296941498336  0.199297298384883  0.23032232309559172  1.0000
  H   H84       1.0  0.8428703061394658  0.8007027018179598  0.7303223231271961  1.0000
  H   H85       1.0  0.5095219123560337  0.42920706419231647  0.8703067600756746  1.0000
  H   H86       1.0  0.9904780879332655  0.5707929360105263  0.37030676004407015  1.0000
  H   H87       1.0  0.00952191225960062  0.07079293622297118  0.12969323998753435  1.0000
  H   H88       1.0  0.4904780878368325  0.9292070639798715  0.6296932400191388  1.0000
  H   H89       1.0  0.8957664207968249  0.5274446713401169  0.8802280755334921  1.0000
  H   H90       1.0  0.6042335794924745  0.4725553282349933  0.38022807550188775  1.0000
  H   H91       1.0  0.39576642070039175  0.9725553286502809  0.11977192410552705  1.0000
  H   H92       1.0  0.10423357939604141  0.02744467155256175  0.6197719241371314  1.0000
  H   H93       1.0  0.078264659030215  0.5396744521155946  0.7727243856641887  1.0000
  H   H94       1.0  0.42173534106621813  0.4603255474595156  0.2727243856325842  1.0000
  H   H95       1.0  0.578264659126648  0.9603255478748033  0.22727561439902022  1.0000
  H   H96       1.0  0.9217353411626512  0.03967445232803947  0.727275614006435  1.0000
  C   C1        1.0  0.8313433014875383  0.11889004479253955  0.5272867844345307  1.0000
  C   C2        1.0  0.6686566970471529  0.8811099554103031  0.027286784402926253  1.0000
  C   C3        1.0  0.3313433013911052  0.3811099556227481  0.47271321562867824  1.0000
  C   C4        1.0  0.16865669695071986  0.6188900445800947  0.9727132156602828  1.0000
  C   C5        1.0  0.18047514375527973  0.18268171844240977  0.5037404984836509  1.0000
  C   C6        1.0  0.31952485634115335  0.817318281760433  0.0037404984520464164  1.0000
  C   C7        1.0  0.6804751438517129  0.31731828197287787  0.496259501579558  1.0000
  C   C8        1.0  0.8195248564375865  0.6826817182299648  0.9962595016111625  1.0000
  C   C9        1.0  0.15312668386108574  0.16126868989636056  0.4466925389382974  1.0000
  C   C10       1.0  0.3468733162353474  0.8387313103064822  0.9466925389699019  1.0000
  C   C11       1.0  0.6531266839575188  0.33873130989119454  0.5533074611249115  1.0000
  C   C12       1.0  0.8468733163317805  0.6612686896839156  0.053307461093307064  1.0000
  C   C13       1.0  0.9548386154410219  0.11414567160467559  0.43365372049957196  1.0000
  C   C14       1.0  0.5451613848482774  0.8858543285981672  0.9336537205311765  1.0000
  C   C15       1.0  0.4548386153445889  0.38585432818287946  0.5663462791394474  1.0000
  C   C16       1.0  0.04516138475184422  0.6141456713922306  0.06634627953203248  1.0000
  C   C17       1.0  0.08938348043714314  0.38713379905219797  0.9594567747779118  1.0000
  C   C18       1.0  0.4106165196592899  0.6128662005229122  0.45945677474630736  1.0000
  C   C19       1.0  0.5893834805335763  0.11286620073535711  0.04054322528529717  1.0000
  C   C20       1.0  0.910616518001115  0.8871337994674856  0.5405432253169017  1.0000
  C   C21       1.0  0.8045566249821332  0.385621612657168  0.04288862673730188  1.0000
  C   C22       1.0  0.695443375307166  0.6143783875456748  0.5428886267689064  1.0000
  C   C23       1.0  0.3045566248857001  0.11437838713038707  0.9571113733259071  1.0000
  C   C24       1.0  0.19544337521073302  0.885621612444723  0.4571113732943026  1.0000
  C   C25       1.0  0.6563845893114023  0.45409094345065326  0.023224983071401348  1.0000
  C   C26       1.0  0.843615409223289  0.545909056124457  0.5232249831030058  1.0000
  C   C27       1.0  0.15638458921496923  0.045909056336901816  0.9767750169918076  1.0000
  C   C28       1.0  0.34361540912685584  0.954090943865941  0.47677501696020314  1.0000
  C   C29       1.0  0.779422534846874  0.33599688928170085  0.09143213893480781  1.0000
  C   C30       1.0  0.7205774654424254  0.664003110921142  0.5914321385422227  1.0000
  C   C31       1.0  0.27942253475044077  0.16400311050585425  0.9085678611284012  1.0000
  C   C32       1.0  0.22057746534599232  0.835996889069256  0.40856786109679666  1.0000
  C   C33       1.0  0.9595725497294629  0.2754060584824601  0.090781722995896  1.0000
  C   C34       1.0  0.5404274505598363  0.7245939417203826  0.5907817230275005  1.0000
  C   C35       1.0  0.4595725496330299  0.224593941305095  0.9092182770673128  1.0000
  C   C36       1.0  0.04042745046340318  0.7754060582700152  0.4092182770357085  1.0000
  C   C37       1.0  0.09247772823386272  0.2899132504760385  0.04214785967413217  1.0000
  C   C38       1.0  0.40752227186257034  0.7100867497268043  0.5421478597057366  1.0000
  C   C39       1.0  0.5924777283302959  0.21008674931151658  0.9578521399648872  1.0000
  C   C40       1.0  0.9075222719590035  0.7899132502635936  0.4578521399332826  1.0000
  C   C41       1.0  0.924901759497911  0.21636347354744737  0.6935132737471158  1.0000
  C   C42       1.0  0.5750982407913883  0.7836365260276629  0.19351327371551136  1.0000
  C   C43       1.0  0.42490175940147795  0.28363652624010777  0.3064867263160931  1.0000
  C   C44       1.0  0.07509824069495516  0.716363473962735  0.806486725923508  1.0000
  C   C45       1.0  0.5862931069114433  0.14548606021516405  0.7171565103649289  1.0000
  C   C46       1.0  0.913706893377856  0.8545139393599461  0.21715651033332437  1.0000
  C   C47       1.0  0.08629310681501019  0.35451393957239097  0.2828434896982801  1.0000
  C   C48       1.0  0.4137068932814229  0.6454860606304517  0.7828434897298846  1.0000
  C   C49       1.0  0.6133967656443372  0.16625330575106742  0.7743157997581903  1.0000
  C   C50       1.0  0.8866032346449623  0.8337466944517753  0.2743157997265859  1.0000
  C   C51       1.0  0.11339676554790405  0.33374669403648766  0.2256842003050186  1.0000
  C   C52       1.0  0.386603234548529  0.6662533055386225  0.7256842003366231  1.0000
  C   C53       1.0  0.8060547075853409  0.21615985091497888  0.7873817128870328  1.0000
  C   C54       1.0  0.6939452927039585  0.7838401492878638  0.2873817128554283  1.0000
  C   C55       1.0  0.3060547074889077  0.2838401495003088  0.21261828717617617  1.0000
  C   C56       1.0  0.1939452926075254  0.716159850702534  0.7126182872077808  1.0000
  C   C57       1.0  0.8359014152757744  0.46003356142545376  0.6892993953334727  1.0000
  C   C58       1.0  0.6640985850135248  0.5399664387773889  0.18929939530186818  1.0000
  C   C59       1.0  0.33590141517934136  0.03996643836210131  0.3107006047297363  1.0000
  C   C60       1.0  0.16409858491709173  0.9600335612130089  0.8107006047613409  1.0000
  C   C61       1.0  0.6026701500214546  0.426758280729769  0.7792718289416627  1.0000
  C   C62       1.0  0.8973298485132366  0.5732417188453411  0.2792718289100582  1.0000
  C   C63       1.0  0.10267014992502152  0.07324171905778608  0.2207281711215463  1.0000
  C   C64       1.0  0.3973298501714116  0.9267582811450565  0.7207281711531508  1.0000
  C   C65       1.0  0.4281656058582375  0.372841936903339  0.7529419565929781  1.0000
  C   C66       1.0  0.07183439423819565  0.6271580626717712  0.2529419565613737  1.0000
  C   C67       1.0  0.9281656059546706  0.12715806288421608  0.24705804347023078  1.0000
  C   C68       1.0  0.5718343943346287  0.8728419373186266  0.7470580435018352  1.0000
  C   C69       1.0  0.6274318842536005  0.4482413328429278  0.8366060278494912  1.0000
  C   C70       1.0  0.8725681160356987  0.5517586667321824  0.33660602781788684  1.0000
  C   C71       1.0  0.12743188415716747  0.05175866694462731  0.163393971789528  1.0000
  C   C72       1.0  0.37256811593926564  0.9482413332582155  0.6633939718211325  1.0000
  C   C73       1.0  0.8280484440880053  0.499336684206998  0.8416768431781925  1.0000
  C   C74       1.0  0.671951556201294  0.5006633159958447  0.34167684314658797  1.0000
  C   C75       1.0  0.3280484439915722  0.0006633162082896289  0.15832315688501647  1.0000
  C   C76       1.0  0.17195155610486096  0.9993366839945531  0.6583231569166209  1.0000
  C   C77       1.0  0.9220841782993882  0.5076272102773592  0.7874046848778785  1.0000
  C   C78       1.0  0.5779158219899111  0.49237278992548345  0.2874046848462741  1.0000
  C   C79       1.0  0.4220841782029551  0.9923727897130386  0.21259531518533037  1.0000
  C   C80       1.0  0.077915821893478  0.007627210489804182  0.7125953152169349  1.0000
  N   N1        1.0  0.7962212804569524  0.09238834869804124  0.47285578322707794  1.0000
  N   N2        1.0  0.7037787198323469  0.9076116508770689  0.9728557832586825  1.0000
  N   N3        1.0  0.29622128036051937  0.40761165108951386  0.5271442164119414  1.0000
  N   N4        1.0  0.20377871973591372  0.5923883491133289  0.027144216380336903  1.0000
  N   N5        1.0  0.6698497410399058  0.09945527146922459  0.5661280564674379  1.0000
  N   N6        1.0  0.8301502592493935  0.9005447287336181  0.06612805643583343  1.0000
  N   N7        1.0  0.16984974094347272  0.400544728946063  0.4338719435957711  1.0000
  N   N8        1.0  0.3301502591529604  0.5994552712567797  0.9338719436273755  1.0000
  N   N9        1.0  0.023740364600762724  0.16349011176420394  0.5437006551492242  1.0000
  N   N10       1.0  0.4762596354956704  0.8365098884386388  0.04370065511761965  1.0000
  N   N11       1.0  0.5237403646971958  0.3365098886510837  0.45629934491398483  1.0000
  N   N12       1.0  0.9762596355921035  0.663490111551759  0.9562993449455893  1.0000
  N   N13       1.0  0.9978157816187578  0.35595693037955856  0.013148418017024705  1.0000
  N   N14       1.0  0.5021842169159334  0.6440430698232842  0.5131484180486292  1.0000
  N   N15       1.0  0.49781578152232475  0.14404307003572905  0.9868515820461843  1.0000
  N   N16       1.0  0.002184218574108375  0.8559569301671136  0.4868515820145798  1.0000
  N   N17       1.0  0.9602504390425028  0.24128337523876114  0.7481806775468748  1.0000
  N   N18       1.0  0.5397495612467965  0.7587166249640815  0.24818067751527034  1.0000
  N   N19       1.0  0.4602504389460697  0.25871662454879396  0.25181932251633415  1.0000
  N   N20       1.0  0.039749561150363405  0.7412833750263162  0.7518193225479386  1.0000
  N   N21       1.0  0.08122234919118841  0.24013165485053659  0.6542770497540059  1.0000
  N   N22       1.0  0.41877765090524466  0.7598683453523062  0.15427704972240142  1.0000
  N   N23       1.0  0.5812223492876215  0.259868345564751  0.3457229503092031  1.0000
  N   N24       1.0  0.9187776510016777  0.7401316546380916  0.8457229503408075  1.0000
  N   N25       1.0  0.7377846241511588  0.16936147456061146  0.6771208411534705  1.0000
  N   N26       1.0  0.7622153761381406  0.8306385250144988  0.17712084112186602  1.0000
  N   N27       1.0  0.2377846240547255  0.3306385252269436  0.32287915890973845  1.0000
  N   N28       1.0  0.2622153760417076  0.669361474975899  0.8228791589413429  1.0000
  N   N29       1.0  0.7860130567656455  0.46444169531694734  0.7498212802492503  1.0000
  N   N30       1.0  0.7139869435236538  0.5355583048858954  0.24982128021764588  1.0000
  N   N31       1.0  0.28601305666921245  0.03555830447060775  0.25017871981395856  1.0000
  N   N32       1.0  0.2139869434272207  0.9644416951045024  0.7501787198455631  1.0000
  O   O1        1.0  0.497391412018013  0.4776849208077159  0.061370868274777016  1.0000
  O   O2        1.0  0.0026085880784200302  0.5223150793951268  0.5613708678821918  1.0000
  O   O3        1.0  0.9973914121144462  0.02231507960757176  0.938629131788432  1.0000
  O   O4        1.0  0.5026085881748532  0.977684920595271  0.43862913175682744  1.0000
  O   O5        1.0  0.6756814598951567  0.48651563836651024  0.9752800402952548  1.0000
  O   O6        1.0  0.8243185403941427  0.5134843618363326  0.47528004026365034  1.0000
  O   O7        1.0  0.17568145979872354  0.013484362048777433  0.02471995976795412  1.0000
  O   O8        1.0  0.32431854029770957  0.9865156381540653  0.5247199597995585  1.0000
  O   O9        1.0  0.2793214447619292  0.33996020120946097  0.7903127153710104  1.0000
  O   O10       1.0  0.2206785553345039  0.6600397989933817  0.290312715339406  1.0000
  O   O11       1.0  0.7793214448583623  0.16003979920582662  0.20968728469219844  1.0000
  O   O12       1.0  0.7206785554309371  0.8399602009970162  0.7096872847238029  1.0000
  O   O13       1.0  0.4199375152596674  0.35793166716129193  0.7008976092816213  1.0000
  O   O14       1.0  0.08006248483676572  0.6420683330415508  0.20089760925001673  1.0000
  O   O15       1.0  0.9199375153561006  0.1420683332539957  0.29910239078158773  1.0000
  O   O16       1.0  0.5800624849331988  0.857931666948847  0.7991023908131921  1.0000
