data_image0
_chemical_formula_structural       H88C92N12O28S4Cl4
_chemical_formula_sum              "H88 C92 N12 O28 S4 Cl4"
_cell_length_a       14.8306002073248
_cell_length_b       22.71306870067339
_cell_length_c       6.859953149215967
_cell_angle_alpha    90.0
_cell_angle_beta     90.0
_cell_angle_gamma    90.0

_space_group_name_H-M_alt    "P 1"
_space_group_IT_number       1

loop_
  _space_group_symop_operation_xyz
  'x, y, z'

loop_
  _atom_site_type_symbol
  _atom_site_label
  _atom_site_symmetry_multiplicity
  _atom_site_fract_x
  _atom_site_fract_y
  _atom_site_fract_z
  _atom_site_occupancy
  H   H1        1.0  0.36558575945713634  0.5499708020356429  0.6856210614991665  1.0000
  H   H2        1.0  0.6344142407232475  0.45002919793470947  0.1856210607131527  1.0000
  H   H3        1.0  0.8655857592101874  0.9500291979198856  0.6856210614991665  1.0000
  H   H4        1.0  0.13441424029591484  0.04997080205046666  0.1856210607131527  1.0000
  H   H5        1.0  0.20049769857132246  0.5761689955885183  0.6704742947881028  1.0000
  H   H6        1.0  0.7995023009347799  0.42383100438183396  0.17047429545982504  1.0000
  H   H7        1.0  0.7004976989986552  0.9238310043670103  0.6704742947881028  1.0000
  H   H8        1.0  0.2995023011817287  0.07616899560334217  0.17047429545982504  1.0000
  H   H9        1.0  0.14375778324514493  0.4032545712208607  0.9004966995592412  1.0000
  H   H10       1.0  0.8562422169352389  0.5967454287494915  0.40049669877322747  1.0000
  H   H11       1.0  0.6437577829981962  0.09674542876431542  0.9004966995592412  1.0000
  H   H12       1.0  0.3562422171821878  0.9032545712060368  0.40049669877322747  1.0000
  H   H13       1.0  0.3078194959193414  0.38387785221384463  0.9002435462268166  1.0000
  H   H14       1.0  0.6921805035867609  0.6161221477565076  0.40024354689853886  1.0000
  H   H15       1.0  0.8078194963466742  0.11612214777133151  0.9002435462268166  1.0000
  H   H16       1.0  0.19218050383370974  0.8838778521990208  0.40024354689853886  1.0000
  H   H17       1.0  0.026339657501324006  0.4222151148477653  0.6910988423502346  1.0000
  H   H18       1.0  0.9736603420047784  0.577784885122587  0.1910988430219568  1.0000
  H   H19       1.0  0.5263396579286568  0.0777848851374108  0.6910988423502346  1.0000
  H   H20       1.0  0.47366034225172715  0.9222151148329416  0.1910988430219568  1.0000
  H   H21       1.0  0.8850776689076268  0.3901915283572954  0.650995931438745  1.0000
  H   H22       1.0  0.11492233127275706  0.609808471613057  0.15099593211046725  1.0000
  H   H23       1.0  0.3850776684802941  0.10980847162788074  0.650995931438745  1.0000
  H   H24       1.0  0.6149223310258082  0.8901915287827468  0.15099593211046725  1.0000
  H   H25       1.0  0.7673032291963247  0.5347662510984212  0.7575321532033977  1.0000
  H   H26       1.0  0.23269677030977767  0.465233748871931  0.25753215241738403  1.0000
  H   H27       1.0  0.2673032294432735  0.9652337488571071  0.7575321532033977  1.0000
  H   H28       1.0  0.7326967707371104  0.03476625111324516  0.25753215241738403  1.0000
  H   H29       1.0  0.4998695849368629  0.4580812283498941  0.7632528846933039  1.0000
  H   H30       1.0  0.500130415243521  0.5419187716204582  0.263252885365026  1.0000
  H   H31       1.0  0.999869584689914  0.041918771635282036  0.7632528846933039  1.0000
  H   H32       1.0  0.00013041481618827119  0.9580812287753455  0.263252885365026  1.0000
  H   H33       1.0  0.4592232394368154  0.3688741728567749  0.9133389140880779  1.0000
  H   H34       1.0  0.5407767607435685  0.6311258271135773  0.4133389147598  1.0000
  H   H35       1.0  0.959223239864148  0.13112582712840123  0.9133389140880779  1.0000
  H   H36       1.0  0.04077676031623578  0.868874172841951  0.4133389147598  1.0000
  H   H37       1.0  0.445963412642828  0.3030546264228896  0.7713092574990447  1.0000
  H   H38       1.0  0.5540365868632744  0.6969453735474627  0.271309256713031  1.0000
  H   H39       1.0  0.9459634130701607  0.19694537356228659  0.7713092574990447  1.0000
  H   H40       1.0  0.05403658711022315  0.8030546264080658  0.271309256713031  1.0000
  H   H41       1.0  0.4327058689661472  0.37412847343468236  0.6591789406778701  1.0000
  H   H42       1.0  0.5672941312142367  0.6258715265356699  0.1591789413495924  1.0000
  H   H43       1.0  0.9327058687191984  0.12587152655049377  0.6591789406778701  1.0000
  H   H44       1.0  0.06729413146118551  0.8741284734198586  0.1591789413495924  1.0000
  H   H45       1.0  0.7018033932881172  0.3476746746143501  0.22737962724691108  1.0000
  H   H46       1.0  0.298196606217985  0.6523253253560022  0.7273796280329248  1.0000
  H   H47       1.0  0.20180339353506616  0.15232532537082608  0.22737962724691108  1.0000
  H   H48       1.0  0.7981966066453178  0.8476746745995262  0.7273796280329248  1.0000
  H   H49       1.0  0.5623821351397945  0.32372408136034947  0.40965318113304927  1.0000
  H   H50       1.0  0.43761786504058936  0.676275919050278  0.909653180461327  1.0000
  H   H51       1.0  0.06238213538674338  0.17627591906510184  0.40965318113304927  1.0000
  H   H52       1.0  0.9376178647936405  0.8237240813455257  0.909653180461327  1.0000
  H   H53       1.0  0.5034194668879655  0.1846368954044359  0.003151673128040389  1.0000
  H   H54       1.0  0.4965805332924184  0.8153631045659163  0.503151673914054  1.0000
  H   H55       1.0  0.003419467134914276  0.31536310458074024  0.003151673128040389  1.0000
  H   H56       1.0  0.9965805330454696  0.684636895389612  0.503151673914054  1.0000
  H   H57       1.0  0.6409857980869115  0.20826797216792436  0.817656560911217  1.0000
  H   H58       1.0  0.3590142020934725  0.7917320278024279  0.3176565615829393  1.0000
  H   H59       1.0  0.14098579833386024  0.29173202781725177  0.817656560911217  1.0000
  H   H60       1.0  0.8590142018465236  0.7082679721531006  0.3176565615829393  1.0000
  H   H61       1.0  0.413208792923521  0.19468092921626676  0.29804289264478073  1.0000
  H   H62       1.0  0.5867912065825813  0.8053190707540856  0.7980428934307944  1.0000
  H   H63       1.0  0.9132087933508537  0.3053190707689094  0.29804289264478073  1.0000
  H   H64       1.0  0.08679120682953019  0.694680929201443  0.7980428934307944  1.0000
  H   H65       1.0  0.3842139987824437  0.27036666603390047  0.2992745614063912  1.0000
  H   H66       1.0  0.6157860013979402  0.7296333339364518  0.7992745621924048  1.0000
  H   H67       1.0  0.8842139992097764  0.22963333395127566  0.2992745614063912  1.0000
  H   H68       1.0  0.11578600097060744  0.7703666660190767  0.7992745621924048  1.0000
  H   H69       1.0  0.45147745313052257  0.24156635645791588  0.48937377369460394  1.0000
  H   H70       1.0  0.5485225470498614  0.7584336435124365  0.9893737730228818  1.0000
  H   H71       1.0  0.9514774528835738  0.2584336435272603  0.48937377369460394  1.0000
  H   H72       1.0  0.04852254662252861  0.7415663564430921  0.9893737730228818  1.0000
  H   H73       1.0  0.940168533645284  0.5825967082822096  0.8013789162143633  1.0000
  H   H74       1.0  0.05983146653509995  0.4174032916881427  0.30137891688608565  1.0000
  H   H75       1.0  0.44016853321795124  0.9174032916733189  0.8013789162143633  1.0000
  H   H76       1.0  0.5598314662881511  0.08259670829703343  0.30137891688608565  1.0000
  H   H77       1.0  0.7300189141807463  0.6532786606487959  0.004809755880588049  1.0000
  H   H78       1.0  0.2699810859996376  0.3467213393215564  0.5048097552088658  1.0000
  H   H79       1.0  0.23001891375341355  0.8467213393067325  0.004809755880588049  1.0000
  H   H80       1.0  0.7699810857526888  0.15327866066361978  0.5048097552088658  1.0000
  H   H81       1.0  0.7627995773503925  0.6826690366828458  0.7752547232203512  1.0000
  H   H82       1.0  0.23720042282999138  0.3173309632875065  0.2752547238920734  1.0000
  H   H83       1.0  0.26279957759734135  0.8173309632726826  0.7752547232203512  1.0000
  H   H84       1.0  0.7372004225830425  0.18266903669766968  0.2752547238920734  1.0000
  H   H85       1.0  0.7919357339427996  0.7198044837294615  0.9980896882338819  1.0000
  H   H86       1.0  0.20806426623758428  0.2801955162408908  0.49808968744786825  1.0000
  H   H87       1.0  0.2919357341897484  0.7801955162260669  0.9980896882338819  1.0000
  H   H88       1.0  0.7080642659906355  0.21980448374428532  0.49808968744786825  1.0000
  C   C1        1.0  0.31409157990108466  0.5183891029947407  0.7304553881060691  1.0000
  C   C2        1.0  0.6859084202792992  0.48161089697561155  0.23045538877779143  1.0000
  C   C3        1.0  0.8140915796541358  0.9816108969607877  0.7304553881060691  1.0000
  C   C4        1.0  0.18590842052624804  0.018389103009564575  0.23045538877779143  1.0000
  C   C5        1.0  0.22301400912732225  0.5332752139142211  0.7220597097760237  1.0000
  C   C6        1.0  0.7769859910530617  0.4667247864964065  0.22205970899000999  1.0000
  C   C7        1.0  0.7230140088803734  0.9667247864815827  0.7220597097760237  1.0000
  C   C8        1.0  0.2769859913000105  0.033275213488769696  0.22205970899000999  1.0000
  C   C9        1.0  0.15931243152472468  0.4911431175158322  0.7779324368432349  1.0000
  C   C10       1.0  0.8406875686556592  0.5088568824545202  0.2779324375149571  1.0000
  C   C11       1.0  0.659312431277776  0.008856882469343998  0.7779324368432349  1.0000
  C   C12       1.0  0.34068756890260804  0.9911431175010084  0.2779324375149571  1.0000
  C   C13       1.0  0.18986114389418343  0.43654931047278667  0.8453550518290037  1.0000
  C   C14       1.0  0.8101388562862005  0.5634506894975657  0.34535505104298997  1.0000
  C   C15       1.0  0.6898611436472346  0.06345068951238952  0.8453550518290037  1.0000
  C   C16       1.0  0.3101388565331493  0.9365493104579629  0.34535505104298997  1.0000
  C   C17       1.0  0.282394942312012  0.4261325075687834  0.8477293712515586  1.0000
  C   C18       1.0  0.7176050578683719  0.573867492401569  0.3477293719232808  1.0000
  C   C19       1.0  0.7823949427393447  0.07386749241639279  0.8477293712515586  1.0000
  C   C20       1.0  0.21760505744103917  0.9261325075539596  0.3477293719232808  1.0000
  C   C21       1.0  0.06235621263280048  0.5074459594998844  0.7737428120200268  1.0000
  C   C22       1.0  0.9376437868733019  0.49255404047046797  0.273742812691749  1.0000
  C   C23       1.0  0.5623562130601332  0.9925540404556441  0.7737428120200268  1.0000
  C   C24       1.0  0.4376437871202507  0.007445959514708197  0.273742812691749  1.0000
  C   C25       1.0  0.8598094184820698  0.4320891143920608  0.7084442902580821  1.0000
  C   C26       1.0  0.140190581698314  0.5679108855782915  0.20844428947206842  1.0000
  C   C27       1.0  0.35980941872901867  0.06791088559311535  0.7084442902580821  1.0000
  C   C28       1.0  0.6401905814513651  0.932089114377237  0.20844428947206842  1.0000
  C   C29       1.0  0.7625077064928758  0.44010707323328957  0.7243332748661558  1.0000
  C   C30       1.0  0.23749229301322658  0.5598929267370628  0.22433327553787813  1.0000
  C   C31       1.0  0.2625077067398246  0.05989292675188662  0.7243332748661558  1.0000
  C   C32       1.0  0.7374922934405592  0.9401070732184656  0.22433327553787813  1.0000
  C   C33       1.0  0.7237754797475082  0.4962831653683946  0.7493037792229644  1.0000
  C   C34       1.0  0.2762245197585942  0.5037168346019577  0.2493037798946867  1.0000
  C   C35       1.0  0.22377547999445696  0.0037168346167815326  0.7493037792229644  1.0000
  C   C36       1.0  0.7762245201859268  0.9962831653535708  0.2493037798946867  1.0000
  C   C37       1.0  0.6306278073210265  0.5010890597826867  0.760618595565241  1.0000
  C   C38       1.0  0.3693721921850758  0.4989109401876655  0.2606185947792273  1.0000
  C   C39       1.0  0.1306278075679754  0.9989109401728417  0.760618595565241  1.0000
  C   C40       1.0  0.8693721926124085  0.0010890597975106127  0.2606185947792273  1.0000
  C   C41       1.0  0.5729049466119103  0.4525232550234516  0.7524359988653764  1.0000
  C   C42       1.0  0.42709505356847355  0.5474767449469008  0.25243599953709867  1.0000
  C   C43       1.0  0.07290494685885915  0.0474767449617246  0.7524359988653764  1.0000
  C   C44       1.0  0.9270950533215248  0.9525232550086278  0.25243599953709867  1.0000
  C   C45       1.0  0.6112531410241032  0.396643305170512  0.7313584613290559  1.0000
  C   C46       1.0  0.38874685915628066  0.6033566947998402  0.23135846054304218  1.0000
  C   C47       1.0  0.11125314127105207  0.10335669481466415  0.7313584613290559  1.0000
  C   C48       1.0  0.8887468589093318  0.8966433051556881  0.23135846054304218  1.0000
  C   C49       1.0  0.7055936802093599  0.3908647905307835  0.7157130775100328  1.0000
  C   C50       1.0  0.2944063192967425  0.6091352094395688  0.21571307672401907  1.0000
  C   C51       1.0  0.2055936804563087  0.10913520945439263  0.7157130775100328  1.0000
  C   C52       1.0  0.7944063197240752  0.8908647905159597  0.21571307672401907  1.0000
  C   C53       1.0  0.469372548156341  0.3485664722074864  0.7695574641939587  1.0000
  C   C54       1.0  0.5306274520240428  0.6514335277628659  0.26955746486568094  1.0000
  C   C55       1.0  0.9693725479093922  0.15143352777768979  0.7695574641939587  1.0000
  C   C56       1.0  0.030627452270991708  0.8485664726329377  0.26955746486568094  1.0000
  C   C57       1.0  0.6792310135246428  0.27995623725698854  0.011186891270353778  1.0000
  C   C58       1.0  0.32076898665574116  0.7200437627133638  0.5111868920563675  1.0000
  C   C59       1.0  0.17923101309731004  0.22004376272818763  0.011186891270353778  1.0000
  C   C60       1.0  0.8207689864087923  0.7799562372421646  0.5111868920563675  1.0000
  C   C61       1.0  0.6570181080862442  0.31305493166536286  0.1761512044930086  1.0000
  C   C62       1.0  0.34298189141985813  0.6869450683049895  0.6761512038212865  1.0000
  C   C63       1.0  0.15701810833319302  0.1869450683198133  0.1761512044930086  1.0000
  C   C64       1.0  0.8429818918471909  0.8130549320908141  0.6761512038212865  1.0000
  C   C65       1.0  0.5784895890971884  0.29939290985362943  0.27744526071836606  1.0000
  C   C66       1.0  0.4215104110831955  0.700607090116723  0.7774452600466438  1.0000
  C   C67       1.0  0.07848958866985568  0.20060709013154673  0.27744526071836606  1.0000
  C   C68       1.0  0.9215104115105281  0.7993929098388056  0.7774452600466438  1.0000
  C   C69       1.0  0.5219640211308992  0.2531936805100009  0.2177506606106667  1.0000
  C   C70       1.0  0.47803597904948464  0.7468063194603514  0.7177506613966804  1.0000
  C   C71       1.0  0.021964020703566536  0.24680631947517523  0.2177506606106667  1.0000
  C   C72       1.0  0.9780359788025358  0.753193680495177  0.7177506613966804  1.0000
  C   C73       1.0  0.5462389584205034  0.22080994849680124  0.051198196599949244  1.0000
  C   C74       1.0  0.45376104108559895  0.7791900514735511  0.551198195928227  1.0000
  C   C75       1.0  0.04623895866745224  0.2791900514883749  0.051198196599949244  1.0000
  C   C76       1.0  0.9537610415129317  0.7208099484819774  0.551198195928227  1.0000
  C   C77       1.0  0.6242490944788264  0.23377929200040573  0.9471420618583366  1.0000
  C   C78       1.0  0.375750905027276  0.7662207079699466  0.4471420625300589  1.0000
  C   C79       1.0  0.12424909472577518  0.26622070798477043  0.9471420618583366  1.0000
  C   C80       1.0  0.8757509054546088  0.7337792919855818  0.4471420625300589  1.0000
  C   C81       1.0  0.4384928127715376  0.23880130868618352  0.3321743633570494  1.0000
  C   C82       1.0  0.5615071874088462  0.7611986912841687  0.8321743626853272  1.0000
  C   C83       1.0  0.9384928125245888  0.2611986912989926  0.3321743633570494  1.0000
  C   C84       1.0  0.06150718698151354  0.7388013086713597  0.8321743626853272  1.0000
  C   C85       1.0  0.8686644869327141  0.6415324389684076  0.9407615736759936  1.0000
  C   C86       1.0  0.13133551324766976  0.3584675610019447  0.44076157288997986  1.0000
  C   C87       1.0  0.3686644865053814  0.858467560987121  0.9407615736759936  1.0000
  C   C88       1.0  0.6313355130007209  0.14153243898323142  0.44076157288997986  1.0000
  C   C89       1.0  0.7836341852341241  0.6770838252932356  0.9272314623208441  1.0000
  C   C90       1.0  0.21636581427197826  0.3229161746771167  0.4272314629925663  1.0000
  C   C91       1.0  0.2836341854810729  0.8229161746622928  0.9272314623208441  1.0000
  C   C92       1.0  0.716365814699311  0.17708382530805947  0.4272314629925663  1.0000
  N   N1        1.0  0.34417706152438604  0.4656804529317703  0.79035155518805  1.0000
  N   N2        1.0  0.6558229379817162  0.534319547038582  0.29035155585977224  1.0000
  N   N3        1.0  0.8441770619517188  0.03431954705340585  0.79035155518805  1.0000
  N   N4        1.0  0.15582293822866508  0.9656804529169464  0.29035155585977224  1.0000
  N   N5        1.0  0.003366129441972536  0.46246903791069754  0.7448978293071907  1.0000
  N   N6        1.0  0.9966338707384114  0.5375309620596548  0.24489782852117703  1.0000
  N   N7        1.0  0.5033661291950237  0.037530962074478605  0.7448978293071907  1.0000
  N   N8        1.0  0.49663387098536016  0.9624690378958737  0.24489782852117703  1.0000
  N   N9        1.0  0.9136563241255503  0.47389041709193996  0.7608379848186752  1.0000
  N   N10       1.0  0.08634367605483356  0.5261095828784124  0.2608379854903974  1.0000
  N   N11       1.0  0.4136563236982176  0.02610958289323618  0.7608379848186752  1.0000
  N   N12       1.0  0.5863436758078847  0.9738904170771161  0.2608379854903974  1.0000
  O   O1        1.0  0.038752832115057846  0.5597886999577051  0.7990161187363876  1.0000
  O   O2        1.0  0.9612471680653261  0.44021130001264713  0.29901611940810974  1.0000
  O   O3        1.0  0.538752831868109  0.9402112999978233  0.7990161187363876  1.0000
  O   O4        1.0  0.4612471683122749  0.05978869997252898  0.29901611940810974  1.0000
  O   O5        1.0  0.5637098696700718  0.3458371316319365  0.7240680966702657  1.0000
  O   O6        1.0  0.4362901298360307  0.6541628683384157  0.224068097341988  1.0000
  O   O7        1.0  0.06370986991702049  0.15416286835323967  0.7240680966702657  1.0000
  O   O8        1.0  0.9362901302633634  0.8458371316171126  0.224068097341988  1.0000
  O   O9        1.0  0.7409790693819983  0.3343797705228106  0.6866412390204663  1.0000
  O   O10       1.0  0.2590209307983856  0.6656202294475417  0.18664123969218843  1.0000
  O   O11       1.0  0.24097906895466556  0.16562022946236557  0.6866412390204663  1.0000
  O   O12       1.0  0.7590209305514367  0.8343797705079868  0.18664123969218843  1.0000
  O   O13       1.0  0.8145457777247354  0.2454037815609983  0.7926142863849495  1.0000
  O   O14       1.0  0.1854542224556485  0.754596218409354  0.2926142855989358  1.0000
  O   O15       1.0  0.3145457779716842  0.25459621842417784  0.7926142863849495  1.0000
  O   O16       1.0  0.6854542222086996  0.7454037815461744  0.2926142855989358  1.0000
  O   O17       1.0  0.8323572759990625  0.3368059728438719  0.9934016037381919  1.0000
  O   O18       1.0  0.16764272418132145  0.6631940271264803  0.49340160440991404  1.0000
  O   O19       1.0  0.3323572755717297  0.1631940271413042  0.9934016037381919  1.0000
  O   O20       1.0  0.6676427239343726  0.836805972829048  0.49340160440991404  1.0000
  O   O21       1.0  0.8806979425923075  0.6058892266544327  0.79017252918404  1.0000
  O   O22       1.0  0.1193020569137948  0.3941107733159196  0.2901725298557622  1.0000
  O   O23       1.0  0.38069794283925634  0.8941107733010959  0.79017252918404  1.0000
  O   O24       1.0  0.6193020573411275  0.10588922666925651  0.2901725298557622  1.0000
  O   O25       1.0  0.9208030180231884  0.6440324199594534  0.08226208951069823  1.0000
  O   O26       1.0  0.07919698215719537  0.355967580010899  0.582262088838976  1.0000
  O   O27       1.0  0.4208030175958558  0.8559675799960752  0.08226208951069823  1.0000
  O   O28       1.0  0.5791969819102466  0.14403241997427718  0.582262088838976  1.0000
  S   S1        1.0  0.776997346628537  0.2974176888656055  0.8799267806500826  1.0000
  S   S2        1.0  0.22300265355184684  0.7025823111047469  0.3799267798640688  1.0000
  S   S3        1.0  0.2769973462012043  0.2025823111195707  0.8799267806500826  1.0000
  S   S4        1.0  0.723002653304898  0.7974176888507816  0.3799267798640688  1.0000
  Cl  Cl1       1.0  0.5821611053702187  0.57047164391379  0.7856906181080855  1.0000
  Cl  Cl2       1.0  0.4178388948101651  0.42952835605656225  0.2856906187798077  1.0000
  Cl  Cl3       1.0  0.08216110561716757  0.9295283560417383  0.7856906181080855  1.0000
  Cl  Cl4       1.0  0.9178388945632163  0.0704716439286139  0.2856906187798077  1.0000
