data_image0
_chemical_formula_structural       H104C124N8P4
_chemical_formula_sum              "H104 C124 N8 P4"
_cell_length_a       17.12171096380331
_cell_length_b       11.777294123513022
_cell_length_c       12.277166197087992
_cell_angle_alpha    90.0
_cell_angle_beta     109.52347399056443
_cell_angle_gamma    90.0

_space_group_name_H-M_alt    "P 1"
_space_group_IT_number       1

loop_
  _space_group_symop_operation_xyz
  'x, y, z'

loop_
  _atom_site_type_symbol
  _atom_site_label
  _atom_site_symmetry_multiplicity
  _atom_site_fract_x
  _atom_site_fract_y
  _atom_site_fract_z
  _atom_site_occupancy
  H   H1        1.0  0.23940778912478203  0.00785675801500651  0.10124084567696405  1.0000
  H   H2        1.0  0.2605922110308758  0.5078567587149542  0.3987591540627865  1.0000
  H   H3        1.0  0.760592210808424  0.9921432416867059  0.898759154665488  1.0000
  H   H4        1.0  0.7394077892804398  0.4921432418358496  0.6012408454167146  1.0000
  H   H5        1.0  0.25871955615211917  0.8060565449450036  0.05935682113012941  1.0000
  H   H6        1.0  0.24128044400353874  0.30605654509414737  0.44064317860962116  1.0000
  H   H7        1.0  0.7412804437810869  0.19394345560580026  0.9406431792123227  1.0000
  H   H8        1.0  0.7587195557234229  0.6939434554566564  0.5593568208686238  1.0000
  H   H9        1.0  0.22371113779944565  0.7399515303435875  0.8567028159103566  1.0000
  H   H10       1.0  0.276288862473237  0.23995152964363986  0.6432971837295305  1.0000
  H   H11       1.0  0.7762888619275159  0.26004847020721633  0.14329718356788823  1.0000
  H   H12       1.0  0.7237111380443232  0.7600484700580724  0.35670281661417785  1.0000
  H   H13       1.0  0.16290907904388313  0.7723789713155789  0.6518529772310035  1.0000
  H   H14       1.0  0.3370909212287995  0.27237897146472273  0.8481470224088835  1.0000
  H   H15       1.0  0.8370909206830784  0.22762102838613346  0.3481470222472413  1.0000
  H   H16       1.0  0.6629090790825163  0.7276210282369897  0.15185297707061746  1.0000
  H   H17       1.0  0.09650326952584225  0.9022334237866885  0.48677389725627523  1.0000
  H   H18       1.0  0.4034967306298156  0.4022334239358323  0.013226102483475366  1.0000
  H   H19       1.0  0.9034967304073638  0.09776657591502384  0.5132261030861769  1.0000
  H   H20       1.0  0.5965032696815001  0.5977665766149715  0.9867738969960257  1.0000
  H   H21       1.0  0.08384339796860331  0.10876878649421833  0.522319731679503  1.0000
  H   H22       1.0  0.4161566017197251  0.6087687863450745  0.977680267959128  1.0000
  H   H23       1.0  0.9161566019646026  0.8912312132074941  0.47768026866294916  1.0000
  H   H24       1.0  0.5838433980072364  0.39123121335663785  0.022319731519116877  1.0000
  H   H25       1.0  0.20728402230310053  0.3912248765869845  0.8904743765513993  1.0000
  H   H26       1.0  0.29271597759147233  0.8912248764378408  0.6095256239514388  1.0000
  H   H27       1.0  0.7927159776301054  0.6087751239638193  0.10952562379105282  1.0000
  H   H28       1.0  0.7072840223417337  0.10877512326387165  0.3904743763910131  1.0000
  H   H29       1.0  0.16376801341791838  0.5902055096104364  0.8470683739911304  1.0000
  H   H30       1.0  0.33623198685476424  0.09020550891048869  0.6529316256487567  1.0000
  H   H31       1.0  0.8362319868933974  0.4097944909403675  0.15293162548837066  1.0000
  H   H32       1.0  0.6637680136627959  0.9097944907912237  0.34706837469495166  1.0000
  H   H33       1.0  0.09572803321156856  0.6940105515138417  0.9675669553168803  1.0000
  H   H34       1.0  0.4042719672673585  0.19401055166298564  0.532433045187214  1.0000
  H   H35       1.0  0.9042719673059917  0.30598944818787055  0.032433045026828006  1.0000
  H   H36       1.0  0.5957280326658474  0.8059894480387266  0.467566955155238  1.0000
  H   H37       1.0  0.06631146457692443  0.5938398749876707  0.12860177297344733  1.0000
  H   H38       1.0  0.4336885357849779  0.09383987513681441  0.37139822763051045  1.0000
  H   H39       1.0  0.9336885353562816  0.4061601247140418  0.8713982273690047  1.0000
  H   H40       1.0  0.5663114647325823  0.9061601245648979  0.6286017727131978  1.0000
  H   H41       1.0  0.10584914731400204  0.3920959968878283  0.16927297788789644  1.0000
  H   H42       1.0  0.3941508522573016  0.8920959967386846  0.3307270218505979  1.0000
  H   H43       1.0  0.8941508524129594  0.6079040028138841  0.8307270215903483  1.0000
  H   H44       1.0  0.6058491476759044  0.10790400296302789  0.6692729784918542  1.0000
  H   H45       1.0  0.34857154049815525  0.14380866200994538  0.04731676783865566  1.0000
  H   H46       1.0  0.15142845907314845  0.6438086618608015  0.45268323189983867  1.0000
  H   H47       1.0  0.6514284592288063  0.8561913385408585  0.9526832316395892  1.0000
  H   H48       1.0  0.8485715408600576  0.3561913378409108  0.5473167684426135  1.0000
  H   H49       1.0  0.4959183182578555  0.17649380988542157  0.16296615582168683  1.0000
  H   H50       1.0  0.00408168131344815  0.6764938097362777  0.33703384391680746  1.0000
  H   H51       1.0  0.5040816816753505  0.8235061898162908  0.8370338445207652  1.0000
  H   H52       1.0  0.9959183184135133  0.3235061899654346  0.6629661555614373  1.0000
  H   H53       1.0  0.5333506030219715  0.30512508920241593  0.33353466426742334  1.0000
  H   H54       1.0  0.9666493969498676  0.8051250899023636  0.16646533591464266  1.0000
  H   H55       1.0  0.4666493967049901  0.6948749104992964  0.6664653352108214  1.0000
  H   H56       1.0  0.033350602983338334  0.1948749106484402  0.8335346644278094  1.0000
  H   H57       1.0  0.421125616347015  0.39941313434709846  0.38958385874347634  1.0000
  H   H58       1.0  0.0788743840148873  0.8994131341979547  0.1104161418604814  1.0000
  H   H59       1.0  0.578874383586191  0.6005868662037053  0.6104161415989757  1.0000
  H   H60       1.0  0.9211256165026728  0.10058686550375767  0.8895838584832269  1.0000
  H   H61       1.0  0.27471112856093804  0.3646705673610964  0.27601699276205777  1.0000
  H   H62       1.0  0.22528887101036563  0.8646705672119525  0.22398300697643655  1.0000
  H   H63       1.0  0.7252888711660235  0.6353294323406159  0.7239830067161872  1.0000
  H   H64       1.0  0.7747111287165959  0.1353294324897598  0.7760169925018083  1.0000
  H   H65       1.0  0.24623772264569393  0.14141563524977194  0.3063722860277171  1.0000
  H   H66       1.0  0.2537622771318542  0.6414156351006282  0.19362771457498446  1.0000
  H   H67       1.0  0.753762277287512  0.8585843653010319  0.693627714314735  1.0000
  H   H68       1.0  0.7462377228013518  0.3585843646010842  0.8063722857674676  1.0000
  H   H69       1.0  0.1632259707888818  0.06367183006008849  0.41872064792458463  1.0000
  H   H70       1.0  0.3367740289886663  0.5636718299109447  0.08127935267811698  1.0000
  H   H71       1.0  0.8367740291443242  0.9363281696416238  0.5812793524178675  1.0000
  H   H72       1.0  0.6632259709445396  0.43632816979076766  0.918720647664335  1.0000
  H   H73       1.0  0.008727981900898324  0.051012461241036935  0.3310676548066667  1.0000
  H   H74       1.0  0.49127201767040535  0.5510124610918931  0.16893234493182754  1.0000
  H   H75       1.0  0.9912720178260633  0.9489875384606754  0.668932344671578  1.0000
  H   H76       1.0  0.5087279822628006  0.4489875386098192  0.8310676554106246  1.0000
  H   H77       1.0  0.9394829093377358  0.11224578040899585  0.12841547011841678  1.0000
  H   H78       1.0  0.5605170906341034  0.612245780259852  0.3715845300636493  1.0000
  H   H79       1.0  0.06051709059547021  0.8877542201418079  0.8715845302240353  1.0000
  H   H80       1.0  0.4394829092991026  0.3877542194418603  0.6284154702788028  1.0000
  H   H81       1.0  0.02279797931311525  0.19346888904225987  0.01572439296904214  1.0000
  H   H82       1.0  0.47720202084254265  0.6934688888931161  0.4842756067707084  1.0000
  H   H83       1.0  0.977202021204445  0.8065311106594525  0.984275607374666  1.0000
  H   H84       1.0  0.5227979788844189  0.3065311108085963  0.5157243927075364  1.0000
  H   H85       1.0  0.15631013060717808  0.24165615294585654  0.8027835204337114  1.0000
  H   H86       1.0  0.3436898692873947  0.7416561527967126  0.6972164800691267  1.0000
  H   H87       1.0  0.843689869326028  0.7583438467558559  0.19721647990874072  1.0000
  H   H88       1.0  0.6563101306458111  0.2583438469049997  0.30278352027332534  1.0000
  H   H89       1.0  0.1198381989854557  0.26343925926123785  0.6506615360901519  1.0000
  H   H90       1.0  0.38016180070287275  0.763439259112094  0.849338463548479  1.0000
  H   H91       1.0  0.8801618007415059  0.7365607404404744  0.349338463388093  1.0000
  H   H92       1.0  0.6198381990240889  0.23656074058961832  0.15066153592976583  1.0000
  H   H93       1.0  0.5980950284341527  0.1310433775207137  0.9529562359211619  1.0000
  H   H94       1.0  0.901904971654711  0.6310433773715699  0.5470437641610406  1.0000
  H   H95       1.0  0.4019049714990532  0.8689566230300901  0.047043764421290074  1.0000
  H   H96       1.0  0.09809502865660467  0.3689566223301425  0.4529562353184604  1.0000
  H   H97       1.0  0.6490514073973989  0.004030846941762507  0.12304243087416973  1.0000
  H   H98       1.0  0.8509485929525499  0.5040308467926187  0.3769575684449453  1.0000
  H   H99       1.0  0.3509485929139168  0.9959691527599498  0.8769575686053314  1.0000
  H   H100      1.0  0.14905140735876587  0.49596915290909366  0.6230424310345558  1.0000
  H   H101      1.0  0.4496835805938743  0.1292088746397111  0.8306110775705984  1.0000
  H   H102      1.0  0.05031641930069858  0.6292088744905673  0.6693889229322397  1.0000
  H   H103      1.0  0.5503164193393316  0.8707911250620012  0.1693889227718536  1.0000
  H   H104      1.0  0.9496835806325075  0.3707911252111451  0.3306110774102124  1.0000
  C   C1        1.0  0.19339701445089683  0.06035422165273854  0.9229443874522999  1.0000
  C   C2        1.0  0.30660298523743157  0.5603542215035947  0.577055612186331  1.0000
  C   C3        1.0  0.806602985482309  0.9396457780489739  0.0770556128901522  1.0000
  C   C4        1.0  0.69339701448953  0.4396457781981176  0.4229443872919138  1.0000
  C   C5        1.0  0.2233110225528416  0.9799428339790363  0.01168306757943938  1.0000
  C   C6        1.0  0.27668897760281624  0.4799428332790886  0.48831693216031113  1.0000
  C   C7        1.0  0.7766889771741199  0.02005716657176757  0.9883169318988054  1.0000
  C   C8        1.0  0.7233110227084993  0.5200571664226238  0.5116830673191899  1.0000
  C   C9        1.0  0.2342428366322642  0.8656234855888142  0.9879756007770754  1.0000
  C   C10       1.0  0.2657571636404184  0.36562348573795805  0.5120243988628117  1.0000
  C   C11       1.0  0.7657571636790514  0.13437651411289817  0.012024398702425729  1.0000
  C   C12       1.0  0.7342428360865432  0.6343765139637544  0.487975600615433  1.0000
  C   C13       1.0  0.21417697367306193  0.828026175429431  0.8755927506128178  1.0000
  C   C14       1.0  0.28582302622151096  0.32802617472948337  0.6244072498900204  1.0000
  C   C15       1.0  0.7858230262601441  0.1719738251213728  0.12440724972963432  1.0000
  C   C16       1.0  0.7141769737116951  0.671973824972229  0.37559275045243173  1.0000
  C   C17       1.0  0.181023054885138  0.9039366206152327  0.7815476455867728  1.0000
  C   C18       1.0  0.3189769453875446  0.4039366207643766  0.7184523540531144  1.0000
  C   C19       1.0  0.8189769448418235  0.09606337993557108  0.21845235389147205  1.0000
  C   C20       1.0  0.6810230549237711  0.5960633797864272  0.2815476454263867  1.0000
  C   C21       1.0  0.15493349303899426  0.8623378573626544  0.666259387508371  1.0000
  C   C22       1.0  0.34506650664933414  0.36233785751179826  0.8337406121302599  1.0000
  C   C23       1.0  0.8450665068942118  0.13766214233905794  0.3337406128340811  1.0000
  C   C24       1.0  0.6549334930776273  0.6376621430390056  0.1662593873479849  1.0000
  C   C25       1.0  0.11888544477922895  0.9351354635876962  0.5749392579907985  1.0000
  C   C26       1.0  0.3811145549090995  0.4351354637368401  0.9250607416478325  1.0000
  C   C27       1.0  0.8811145551539771  0.0648645361140161  0.4250607423516537  1.0000
  C   C28       1.0  0.618885444817862  0.5648645359648723  0.07493925783041239  1.0000
  C   C29       1.0  0.11179096498581984  0.05129604505621329  0.5944074151812315  1.0000
  C   C30       1.0  0.38820903470250856  0.5512960449070695  0.9055925844573992  1.0000
  C   C31       1.0  0.8882090347411417  0.9487039554945905  0.4055925842970132  1.0000
  C   C32       1.0  0.6117909652306974  0.4487039547946429  0.09440741588505273  1.0000
  C   C33       1.0  0.14160355014742745  0.09762449234451512  0.7058934813887421  1.0000
  C   C34       1.0  0.35839644954090094  0.5976244921953713  0.7941065182498888  1.0000
  C   C35       1.0  0.8583964497857784  0.9023755073571972  0.29410651895371  1.0000
  C   C36       1.0  0.6416035501860605  0.40237550750634105  0.205893481228356  1.0000
  C   C37       1.0  0.17229582645333705  0.022516168588383713  0.8042424120505212  1.0000
  C   C38       1.0  0.3277041740255899  0.5225161692883313  0.6957575884535729  1.0000
  C   C39       1.0  0.8277041734798689  0.9774838311133287  0.19575758829193077  1.0000
  C   C40       1.0  0.6722958264919702  0.47748383126247246  0.30424241189013523  1.0000
  C   C41       1.0  0.1580288776170934  0.3775777350352495  0.031501255775411935  1.0000
  C   C42       1.0  0.3419711225385645  0.8775777348861057  0.4684987439643386  1.0000
  C   C43       1.0  0.8419711223161126  0.6224222646664629  0.9684987445670402  1.0000
  C   C44       1.0  0.6580288777727513  0.12242226481560672  0.5315012555151625  1.0000
  C   C45       1.0  0.1743042046907621  0.4340840685801819  0.940745882267354  1.0000
  C   C46       1.0  0.3256957949975663  0.9340840684310381  0.559254117371277  1.0000
  C   C47       1.0  0.825695795242444  0.5659159311215304  0.05925411807509818  1.0000
  C   C48       1.0  0.6743042047293951  0.06591593127067424  0.44074588210696786  1.0000
  C   C49       1.0  0.15083699785329135  0.5470867953561876  0.9176024766452959  1.0000
  C   C50       1.0  0.3491630020412815  0.0470867955053315  0.5823975238575422  1.0000
  C   C51       1.0  0.8491630020799146  0.4529132043455247  0.08239752369715617  1.0000
  C   C52       1.0  0.6508369978919245  0.9529132041963808  0.41760247648490983  1.0000
  C   C53       1.0  0.11250677605681175  0.6050903794422946  0.9853137029877389  1.0000
  C   C54       1.0  0.3874932238377611  0.10509037959143838  0.5146862975150991  1.0000
  C   C55       1.0  0.8874932238763942  0.3949096211085093  0.01468629735471313  1.0000
  C   C56       1.0  0.6125067760954449  0.8949096209593654  0.48531370282735287  1.0000
  C   C57       1.0  0.09665427533095472  0.5492314034244853  0.07601574541650111  1.0000
  C   C58       1.0  0.4033457244465934  0.049231403573629096  0.4239842551862005  1.0000
  C   C59       1.0  0.9033457246022512  0.45076859627722704  0.923984254925951  1.0000
  C   C60       1.0  0.5966542754866127  0.9507685961280832  0.5760157451562516  1.0000
  C   C61       1.0  0.11927130555893446  0.4356036773979892  0.09919077694192774  1.0000
  C   C62       1.0  0.38072869401236914  0.9356036772488454  0.4008092227965665  1.0000
  C   C63       1.0  0.880728694168027  0.5643963223037232  0.900809222536317  1.0000
  C   C64       1.0  0.6192713059208368  0.06439632245286699  0.5991907775458855  1.0000
  C   C65       1.0  0.3021481587064522  0.250059187544646  0.1556856848933175  1.0000
  C   C66       1.0  0.19785184086485152  0.7500591882445937  0.34431431484517677  1.0000
  C   C67       1.0  0.6978518410205093  0.7499408121570663  0.8443143145849272  1.0000
  C   C68       1.0  0.8021481588621101  0.24994081230621015  0.6556856846330681  1.0000
  C   C69       1.0  0.3646455903899299  0.19808281134309744  0.12338770700720587  1.0000
  C   C70       1.0  0.1353544091813738  0.6980828111939537  0.3766122927312884  1.0000
  C   C71       1.0  0.6353544093370317  0.8019171883586148  0.876612292471039  1.0000
  C   C72       1.0  0.8646455907518321  0.3019171885077587  0.6233877076111636  1.0000
  C   C73       1.0  0.44756106527659506  0.21731767103363794  0.1883459080119557  1.0000
  C   C74       1.0  0.05243893450095307  0.7173176708844942  0.31165409259074583  1.0000
  C   C75       1.0  0.5524389346566109  0.7826823286680744  0.8116540923304963  1.0000
  C   C76       1.0  0.9475610654322528  0.2826823288172182  0.6883459077517062  1.0000
  C   C77       1.0  0.4683080753223564  0.2890935272816646  0.28449462996894326  1.0000
  C   C78       1.0  0.03169192424894733  0.7890935271325208  0.21550536976955106  1.0000
  C   C79       1.0  0.5316919246108496  0.7109064724200478  0.7155053703735088  1.0000
  C   C80       1.0  0.9683080754780143  0.21090647256919157  0.7844946297086938  1.0000
  C   C81       1.0  0.4058297922752926  0.3411159055609671  0.31644004765094685  1.0000
  C   C82       1.0  0.0941702080866097  0.8411159054118232  0.18355995295301092  1.0000
  C   C83       1.0  0.5941702082422675  0.6588840949898368  0.6835599526927614  1.0000
  C   C84       1.0  0.9058297918465964  0.15888409428988912  0.8164400473894412  1.0000
  C   C85       1.0  0.3230412301311147  0.3217042004950664  0.25234992490059355  1.0000
  C   C86       1.0  0.17695876964643342  0.8217042003459225  0.24765007570210798  1.0000
  C   C87       1.0  0.6769587698020912  0.678295799206646  0.7476500754418585  1.0000
  C   C88       1.0  0.8230412302867726  0.1782957993557898  0.752349924640344  1.0000
  C   C89       1.0  0.1396909024887088  0.1747899779364565  0.15389965850229193  1.0000
  C   C90       1.0  0.3603090976669491  0.6747899777873128  0.34610034123745864  1.0000
  C   C91       1.0  0.8603090972382527  0.8252100226143473  0.8461003409759529  1.0000
  C   C92       1.0  0.639690902850611  0.3252100227634911  0.6538996591062497  1.0000
  C   C93       1.0  0.1790312753745764  0.13725031259708717  0.26734017961067447  1.0000
  C   C94       1.0  0.3209687247810815  0.6372503124479433  0.23265982012907604  1.0000
  C   C95       1.0  0.8209687249367393  0.8627496879537166  0.7326598198688267  1.0000
  C   C96       1.0  0.6790312751521245  0.362749687253769  0.767340180213376  1.0000
  C   C97       1.0  0.13192034821125706  0.09329259068145451  0.33086967488818414  1.0000
  C   C98       1.0  0.36807965194440084  0.5932925905323106  0.16913032485156634  1.0000
  C   C99       1.0  0.8680796523063031  0.9067074098693493  0.6691303254555241  1.0000
  C   C100      1.0  0.6319203477825607  0.4067074100184931  0.8308696746266786  1.0000
  C   C101      1.0  0.04579242629025856  0.08575068767143569  0.28189725878634103  1.0000
  C   C102      1.0  0.4542075734872895  0.5857506875222919  0.21810274181636055  1.0000
  C   C103      1.0  0.9542075736429474  0.9142493120302766  0.7181027415561111  1.0000
  C   C104      1.0  0.5457924264459164  0.4142493121794205  0.7818972585260915  1.0000
  C   C105      1.0  0.0064882135961644985  0.12055997541619265  0.167669989580935  1.0000
  C   C106      1.0  0.49351178597513917  0.6205599752670488  0.33233001015755925  1.0000
  C   C107      1.0  0.9935117863370414  0.8794400242855197  0.8323300107615169  1.0000
  C   C108      1.0  0.5064882137518224  0.3794400244346635  0.6676699893206856  1.0000
  C   C109      1.0  0.053235019408427224  0.16511989168356866  0.10421967360842226  1.0000
  C   C110      1.0  0.4467649803691209  0.6651198923835163  0.3957803269942793  1.0000
  C   C111      1.0  0.9467649805247788  0.8348801080181437  0.8957803267340297  1.0000
  C   C112      1.0  0.553235019564085  0.33488010816728747  0.6042196733481727  1.0000
  C   C113      1.0  0.5549377909091442  0.07409317291803434  0.9739112729555952  1.0000
  C   C114      1.0  0.9450622091797195  0.574093173617982  0.5260887271266075  1.0000
  C   C115      1.0  0.4450622088178173  0.925906826783678  0.02608872652264964  1.0000
  C   C116      1.0  0.054937790753486385  0.42590682693282184  0.4739112732158447  1.0000
  C   C117      1.0  0.5836502130565066  0.0022162238393868315  0.06976995735397815  1.0000
  C   C118      1.0  0.9163497874996868  0.5022162245393345  0.4302300428293441  1.0000
  C   C119      1.0  0.41634978746105356  0.9977837758623256  0.93023004298973  1.0000
  C   C120      1.0  0.08365021301787344  0.4977837760114694  0.5697699575143642  1.0000
  C   C121      1.0  0.4714908133738564  0.07203724990668159  0.9044238804679807  1.0000
  C   C122      1.0  0.028509186898826266  0.5720372506066292  0.5955761191719063  1.0000
  C   C123      1.0  0.5285091871437039  0.9279627497950307  0.09557611987572755  1.0000
  C   C124      1.0  0.9714908128281354  0.4279627499441746  0.4044238803063384  1.0000
  N   N1        1.0  0.18191914533117257  0.17336839163450843  0.9442325759018054  1.0000
  N   N2        1.0  0.31808085514775447  0.6733683914853646  0.5557674246022888  1.0000
  N   N3        1.0  0.8180808551863875  0.8266316080672039  0.05576742444190279  1.0000
  N   N4        1.0  0.6819191453698057  0.3266316082163478  0.44423257574141944  1.0000
  N   N5        1.0  0.1432175992182861  0.21235266724017254  0.7201269565508774  1.0000
  N   N6        1.0  0.35678240047004234  0.7123526679401202  0.7798730430877535  1.0000
  N   N7        1.0  0.8567824005086755  0.7876473324615397  0.2798730429273675  1.0000
  N   N8        1.0  0.6432175992569192  0.28764733261068365  0.2201269563904913  1.0000
  P   P1        1.0  0.1951359504008138  0.23409768416122478  0.06486019995019826  1.0000
  P   P2        1.0  0.3048640497548441  0.734097684012081  0.4351397997895523  1.0000
  P   P3        1.0  0.804864049910502  0.7659023155404876  0.9351397995293028  1.0000
  P   P4        1.0  0.6951359501783619  0.26590231568963135  0.5648602005528998  1.0000
