data_image0
_chemical_formula_structural       H36C144N2O16S4Cl4Br2
_chemical_formula_sum              "H36 C144 N2 O16 S4 Cl4 Br2"
_cell_length_a       11.583573160689598
_cell_length_b       14.177727251000999
_cell_length_c       14.564929367711455
_cell_angle_alpha    87.27397136522252
_cell_angle_beta     86.15473575028999
_cell_angle_gamma    88.52420715427102

_space_group_name_H-M_alt    "P 1"
_space_group_IT_number       1

loop_
  _space_group_symop_operation_xyz
  'x, y, z'

loop_
  _atom_site_type_symbol
  _atom_site_label
  _atom_site_symmetry_multiplicity
  _atom_site_fract_x
  _atom_site_fract_y
  _atom_site_fract_z
  _atom_site_occupancy
  H   H1        1.0  0.5978573472728264  0.17536928349171538  0.34310884763804034  1.0000
  H   H2        1.0  0.4021426523509599  0.8246307163016443  0.6568911528268206  1.0000
  H   H3        1.0  0.4337513893290231  0.07991913540572439  0.4913817241053943  1.0000
  H   H4        1.0  0.5662486103312435  0.9200808651256731  0.5086182756706268  1.0000
  H   H5        1.0  0.32408716970883406  0.02815245220406994  0.6370547365180704  1.0000
  H   H6        1.0  0.6759128308379578  0.9718475476226512  0.3629452632602343  1.0000
  H   H7        1.0  0.5865867988434272  0.1458692071512471  0.7919675559605409  1.0000
  H   H8        1.0  0.41341320170336476  0.8541307926754741  0.20803244381776384  1.0000
  H   H9        1.0  0.6935883776294433  0.19774994794619785  0.6483960282010596  1.0000
  H   H10       1.0  0.3064116220542846  0.8022500518796354  0.3516039715749476  1.0000
  H   H11       1.0  0.4647502774521029  0.5082743937793335  0.2567708614365891  1.0000
  H   H12       1.0  0.5352497221716835  0.4917256060140262  0.7432291390282719  1.0000
  H   H13       1.0  0.4216977546663098  0.6200401137157203  0.3006721952062621  1.0000
  H   H14       1.0  0.5783022457970792  0.37995988678409176  0.6993278052609101  1.0000
  H   H15       1.0  0.45305583820333256  0.523740606976687  0.3782223235931525  1.0000
  H   H16       1.0  0.5469441614803954  0.4762593928491461  0.6217776761828547  1.0000
  H   H17       1.0  0.7164198692855902  0.6755521297989601  0.37776632227827034  1.0000
  H   H18       1.0  0.2835801303381961  0.32444786999439956  0.6222336781865906  1.0000
  H   H19       1.0  0.6043056497246059  0.6202047726614263  0.4492621256753615  1.0000
  H   H20       1.0  0.3956943499356606  0.3797952278699712  0.5507378741006596  1.0000
  H   H21       1.0  0.5717529242212116  0.7190551484202179  0.3740985727311576  1.0000
  H   H22       1.0  0.4282470754625163  0.28094485140561515  0.6259014270448496  1.0000
  H   H23       1.0  0.6257889150685292  0.5782358311012286  0.15740229325093633  1.0000
  H   H24       1.0  0.37421108461519864  0.42176416872460476  0.8425977065250709  1.0000
  H   H25       1.0  0.7344008348008002  0.6446813798197739  0.2051090124875232  1.0000
  H   H26       1.0  0.2655991657459917  0.3553186200069471  0.7948909872907817  1.0000
  H   H27       1.0  0.5940548576777946  0.6948628964493552  0.19456566738153824  1.0000
  H   H28       1.0  0.4059451428090557  0.3051371033448924  0.8054343330856202  1.0000
  H   H29       1.0  0.9059737387752745  0.22729881006825692  0.6550547806594144  1.0000
  H   H30       1.0  0.09402626084851186  0.7727011897251028  0.3449452198054466  1.0000
  H   H31       1.0  0.87724725269397  0.3506761068631305  0.666637990697936  1.0000
  H   H32       1.0  0.12275274698975783  0.6493238929627027  0.3333620090780714  1.0000
  H   H33       1.0  0.03865491149753096  0.35320840017586286  0.7760780963942617  1.0000
  H   H34       1.0  0.961345089049261  0.6467915996508583  0.22392190338404305  1.0000
  H   H35       1.0  0.08291287274148477  0.3249830256376155  0.6602212451014632  1.0000
  H   H36       1.0  0.9170871269187817  0.675016974893782  0.339778754674558  1.0000
  C   C1        1.0  0.6931364863367336  0.2433044282749476  0.4633872056429466  1.0000
  C   C2        1.0  0.30686351421005836  0.7566955715517736  0.5366127941353582  1.0000
  C   C3        1.0  0.7706100137312228  0.38561175275352283  0.48443848903058423  1.0000
  C   C4        1.0  0.22938998679210768  0.6143882477787628  0.5155615107477344  1.0000
  C   C5        1.0  0.8024928497410299  0.35910960947079484  0.3887661739894769  1.0000
  C   C6        1.0  0.19750715078230086  0.6408903910614907  0.6112338257888417  1.0000
  C   C7        1.0  0.7547730145735176  0.2740177228303372  0.3766875206859115  1.0000
  C   C8        1.0  0.24522698597327428  0.7259822769963841  0.6233124790923933  1.0000
  C   C9        1.0  0.7389720385277792  0.23023619545081603  0.286387915009182  1.0000
  C   C10       1.0  0.2610279611559486  0.7697638043750172  0.7136120847668252  1.0000
  C   C11       1.0  0.8108995132016573  0.14197859245630698  0.25352635740041374  1.0000
  C   C12       1.0  0.189100486422129  0.8580214073370527  0.7464736430644473  1.0000
  C   C13       1.0  0.8796441920716095  0.07529496278109114  0.2981087100716199  1.0000
  C   C14       1.0  0.12035580847518249  0.9247050370456301  0.7018912897066849  1.0000
  C   C15       1.0  0.920325635841387  0.07624155309555244  0.3944322756628198  1.0000
  C   C16       1.0  0.07967436378239941  0.9237584466978073  0.6055677248020411  1.0000
  C   C17       1.0  0.04504106467617858  0.042096588484780144  0.3855220132640319  1.0000
  C   C18       1.0  0.9549589358706133  0.9579034113419411  0.614477986514273  1.0000
  C   C19       1.0  0.13611319687372786  0.08303180968760066  0.4249157932689656  1.0000
  C   C20       1.0  0.8638868027500585  0.9169681901057588  0.5750842071958955  1.0000
  C   C21       1.0  0.12684100444016844  0.16446230569644255  0.48830552541283473  1.0000
  C   C22       1.0  0.8731589961066235  0.8355376941302788  0.51169447436547  1.0000
  C   C23       1.0  0.2144865106688936  0.2333394717116975  0.44466433412077316  1.0000
  C   C24       1.0  0.7855134890148343  0.7666605281141355  0.5553356656552341  1.0000
  C   C25       1.0  0.19548617678813776  0.32860562703348917  0.4228453726292991  1.0000
  C   C26       1.0  0.80451382289559  0.6713943727923442  0.5771546271467082  1.0000
  C   C27       1.0  0.08055240807152082  0.38120755198344275  0.43494037388463086  1.0000
  C   C28       1.0  0.9194475924752711  0.6187924478432785  0.5650596258936738  1.0000
  C   C29       1.0  0.07034664551480227  0.43850173419715  0.3451063715773655  1.0000
  C   C30       1.0  0.9296533541689257  0.5614982656286832  0.6548936281986418  1.0000
  C   C31       1.0  0.9745697355042757  0.4534298655292986  0.2938208231510092  1.0000
  C   C32       1.0  0.025430264179452117  0.5465701342965347  0.706179176624998  1.0000
  C   C33       1.0  0.8453303386502242  0.4271942431482914  0.3126140691889274  1.0000
  C   C34       1.0  0.15466966097356202  0.5728057566450683  0.6873859312759336  1.0000
  C   C35       1.0  0.8215911698037882  0.3872889553107504  0.21965929724714778  1.0000
  C   C36       1.0  0.1784088298199982  0.6127110444826093  0.7803407032177132  1.0000
  C   C37       1.0  0.7748273907512203  0.301359782270126  0.20808646719175014  1.0000
  C   C38       1.0  0.22517260887256604  0.6986402175232336  0.7919135332731108  1.0000
  C   C39       1.0  0.8087459348481415  0.25167949868715694  0.12668338077921604  1.0000
  C   C40       1.0  0.19125406483558624  0.7483205011386763  0.8733166189967912  1.0000
  C   C41       1.0  0.8269271189609485  0.15338619896362668  0.15398460647039694  1.0000
  C   C42       1.0  0.173072880662838  0.8466138008297329  0.8460153939944639  1.0000
  C   C43       1.0  0.906881566459352  0.09875532640196244  0.10221668221254605  1.0000
  C   C44       1.0  0.0931184340874398  0.9012446734247589  0.8977833175657587  1.0000
  C   C45       1.0  0.9772944623443263  0.029161851583212772  0.14888464904310977  1.0000
  C   C46       1.0  0.022705538202465767  0.9708381482435084  0.8511153507351951  1.0000
  C   C47       1.0  0.9645990291629617  0.020560411790433324  0.24448618155146523  1.0000
  C   C48       1.0  0.035400970520765976  0.9794395880353998  0.755513818224542  1.0000
  C   C49       1.0  0.06534475921400115  0.0023045762134117466  0.29687080576962116  1.0000
  C   C50       1.0  0.9346552413327909  0.9976954236133095  0.7031291940086836  1.0000
  C   C51       1.0  0.17527905183349343  0.9977848688800374  0.2513358450279465  1.0000
  C   C52       1.0  0.8247209486898373  0.0022151316522482896  0.7486641547503722  1.0000
  C   C53       1.0  0.2688833838187486  0.0440791036369003  0.2907341064569331  1.0000
  C   C54       1.0  0.7311166167045821  0.9559208968953854  0.7092658933213856  1.0000
  C   C55       1.0  0.24673621804626034  0.08814546452950883  0.37385449604852283  1.0000
  C   C56       1.0  0.7532637815775262  0.9118545352638509  0.6261455044163381  1.0000
  C   C57       1.0  0.294487337204848  0.18029995190676323  0.38561411023187364  1.0000
  C   C58       1.0  0.705512662395477  0.8197000485921608  0.614385890233001  1.0000
  C   C59       1.0  0.3625061655791343  0.22331710336227428  0.3137884431844687  1.0000
  C   C60       1.0  0.6374938341045936  0.7766828964635589  0.6862115565915387  1.0000
  C   C61       1.0  0.34576932456033077  0.32324084577701945  0.2931818902647307  1.0000
  C   C62       1.0  0.6542306751233972  0.6767591540488137  0.7068181095112764  1.0000
  C   C63       1.0  0.259334292268784  0.3718615937744135  0.34448538298510534  1.0000
  C   C64       1.0  0.7406657073550023  0.6281384060189462  0.6555146174797556  1.0000
  C   C65       1.0  0.18470671067142616  0.4397827360068061  0.29848071174383456  1.0000
  C   C66       1.0  0.8152932889288987  0.5602172644921178  0.7015192887210402  1.0000
  C   C67       1.0  0.2032442243261336  0.4596061874466477  0.20418625947170746  1.0000
  C   C68       1.0  0.7967557762206585  0.5403938123800736  0.7958137403065972  1.0000
  C   C69       1.0  0.10394915638622343  0.4741762968488809  0.15036860237426572  1.0000
  C   C70       1.0  0.8960508432141017  0.525823703650043  0.8496313980906091  1.0000
  C   C71       1.0  0.9932606257818293  0.4696821732370788  0.19472004928513667  1.0000
  C   C72       1.0  0.006739373901898577  0.5303178265887544  0.8052799504908706  1.0000
  C   C73       1.0  0.9013160832067059  0.4271648653891816  0.1497154620333014  1.0000
  C   C74       1.0  0.09868391645356069  0.572835135142216  0.8502845377427197  1.0000
  C   C75       1.0  0.9250780163801802  0.38458177851409403  0.06568173808583808  1.0000
  C   C76       1.0  0.0749219833035476  0.6154182213117392  0.9343182616901692  1.0000
  C   C77       1.0  0.8770562430863391  0.2931974998985157  0.053678761230163324  1.0000
  C   C78       1.0  0.1229437565973888  0.7068024999273176  0.9463212385458439  1.0000
  C   C79       1.0  0.9633833609617289  0.23726347705199197  0.0025461033130699537  1.0000
  C   C80       1.0  0.03661663958506283  0.7627365227747293  0.9974538964652349  1.0000
  C   C81       1.0  0.9767763850684661  0.14093494872959872  0.025382815030337645  1.0000
  C   C82       1.0  0.02322361461526194  0.8590650510962344  0.9746171847456697  1.0000
  C   C83       1.0  0.09180186905778974  0.09754848535877997  0.02611650425127656  1.0000
  C   C84       1.0  0.9081981305659969  0.9024515144345796  0.9738834962135844  1.0000
  C   C85       1.0  0.09149985515773923  0.026828812029672227  0.10150705093130512  1.0000
  C   C86       1.0  0.9085001453291113  0.9731711877645756  0.8984929495358533  1.0000
  C   C87       1.0  0.18937095242087068  0.011907339688621118  0.1520584954002793  1.0000
  C   C88       1.0  0.8106290472628573  0.9880926601372121  0.8479415043757279  1.0000
  C   C89       1.0  0.2910236296474434  0.06872539786087466  0.13010262922302623  1.0000
  C   C90       1.0  0.7089763700128231  0.931274602670523  0.8698973705529948  1.0000
  C   C91       1.0  0.3400361036403417  0.08867414679927357  0.2161140760590062  1.0000
  C   C92       1.0  0.6599638960433862  0.9113258530265597  0.783885923717001  1.0000
  C   C93       1.0  0.3860238940485684  0.17726691177980594  0.227510562504344  1.0000
  C   C94       1.0  0.6139761064982235  0.8227330880469153  0.7724894372739608  1.0000
  C   C95       1.0  0.3851975931869794  0.2493074258421328  0.1534737753357835  1.0000
  C   C96       1.0  0.6148024073598126  0.7506925739845884  0.8465262244425212  1.0000
  C   C97       1.0  0.36112754833625604  0.3398276979104246  0.19419287085462644  1.0000
  C   C98       1.0  0.638872452210536  0.6601723019162966  0.8058071289236785  1.0000
  C   C99       1.0  0.29147992227091557  0.4077714660433738  0.1503133870947327  1.0000
  C   C100      1.0  0.7085200782159349  0.5922285337508739  0.8496866133724259  1.0000
  C   C101      1.0  0.24461022967142704  0.3886231649519798  0.06324049680095518  1.0000
  C   C102      1.0  0.7553897699288978  0.6113768355469442  0.9367595036639195  1.0000
  C   C103      1.0  0.12909313091345703  0.4308485487934123  0.06279528118073462  1.0000
  C   C104      1.0  0.8709068687702709  0.5691514510324209  0.9372047185952725  1.0000
  C   C105      1.0  0.04131208911952726  0.3851261917569441  0.02203650306843734  1.0000
  C   C106      1.0  0.9586879114272646  0.614873808069777  0.9779634967098675  1.0000
  C   C107      1.0  0.06494934177919619  0.2944032630272902  0.9820893214341657  1.0000
  C   C108      1.0  0.9350506587441344  0.7055967375049955  0.017910678344152862  1.0000
  C   C109      1.0  0.1759959950319102  0.2529416632788857  0.9832257102704022  1.0000
  C   C110      1.0  0.8240040045684148  0.7470583372200382  0.016774290194472616  1.0000
  C   C111      1.0  0.18980137800728683  0.15244797686563344  0.004889026272645274  1.0000
  C   C112      1.0  0.810198621676441  0.8475520229601997  0.995110973503362  1.0000
  C   C113      1.0  0.2906858217226328  0.1381852338307464  0.05827225318814925  1.0000
  C   C114      1.0  0.7093141779610949  0.8618147659950868  0.9417277465878581  1.0000
  C   C115      1.0  0.33861121834595437  0.23010206463709396  0.07025679622156933  1.0000
  C   C116      1.0  0.6613887813377736  0.7698979351887392  0.929743203554438  1.0000
  C   C117      1.0  0.26764769302419555  0.30097141493305973  0.02397309392390713  1.0000
  C   C118      1.0  0.7323523074626549  0.6990285848611881  0.9760269065432514  1.0000
  C   C119      1.0  0.5688069182740119  0.14567317012583983  0.5588638661960047  1.0000
  C   C120      1.0  0.43119308221283864  0.8543268296684079  0.44113613427115383  1.0000
  C   C121      1.0  0.46582406837084284  0.0952332281630847  0.5575411324992967  1.0000
  C   C122      1.0  0.534175931312885  0.9047667716627485  0.44245886727671063  1.0000
  C   C123      1.0  0.40444711357737134  0.06603118008732879  0.6389717890413358  1.0000
  C   C124      1.0  0.5955528869694207  0.9339688197393924  0.3610282107369689  1.0000
  C   C125      1.0  0.4479674342089948  0.08561166281174452  0.7230247036150215  1.0000
  C   C126      1.0  0.5520325654512718  0.914388337719653  0.2769752961609995  1.0000
  C   C127      1.0  0.5519848432923421  0.1326624068372288  0.7261473098446508  1.0000
  C   C128      1.0  0.44801515719450835  0.867337592957019  0.2738526906225076  1.0000
  C   C129      1.0  0.612068557574377  0.16240319576517895  0.6447017038558638  1.0000
  C   C130      1.0  0.3879314429124735  0.8375968040290688  0.3552982966112946  1.0000
  C   C131      1.0  0.604092970509579  0.5881357974975849  0.3056137934987574  1.0000
  C   C132      1.0  0.3959070291741489  0.4118642023282482  0.6943862062772499  1.0000
  C   C133      1.0  0.47812261804888534  0.5575539183327735  0.31074472996823405  1.0000
  C   C134      1.0  0.5218773824379651  0.44244608146147407  0.6892552704989244  1.0000
  C   C135      1.0  0.6256583793826387  0.6548702544605327  0.38141532576718346  1.0000
  C   C136      1.0  0.37434162116415326  0.3451297453661885  0.6185846740111213  1.0000
  C   C137      1.0  0.6420522162098065  0.6287533161617981  0.20971978137613895  1.0000
  C   C138      1.0  0.35794778427704405  0.37124668363244967  0.7902802190910196  1.0000
  C   C139      1.0  0.3968289939422033  0.7244605284436951  0.020752534671356078  1.0000
  C   C140      1.0  0.6031710057415247  0.27553947138213813  0.9792474651046511  1.0000
  C   C141      1.0  0.9109971509851799  0.28596641261943573  0.7006064503096378  1.0000
  C   C142      1.0  0.08900284869854795  0.7140335872063975  0.2993935494663695  1.0000
  C   C143      1.0  0.03378056389158163  0.3009771483394484  0.7235673549801999  1.0000
  C   C144      1.0  0.9662194357921463  0.6990228514863848  0.2764326447958073  1.0000
  N   N1        1.0  0.6241320928896698  0.17372197364343855  0.47435750824285466  1.0000
  N   N2        1.0  0.3758679067705968  0.826278026887959  0.5256424915331664  1.0000
  O   O1        1.0  0.7114514787098761  0.3076453777505042  0.5290819850538067  1.0000
  O   O2        1.0  0.288548520890449  0.6923546227484199  0.4709180154110681  1.0000
  O   O3        1.0  0.7795845328423656  0.4569589227848187  0.5248882193045522  1.0000
  O   O4        1.0  0.22041546681790072  0.5430410777465787  0.47511178047146885  1.0000
  O   O5        1.0  0.6186262914422618  0.20920790488411764  0.2833663744739015  1.0000
  O   O6        1.0  0.38137370818152466  0.790792094909242  0.7166336259909594  1.0000
  O   O7        1.0  0.8676236600703175  0.10665459431585737  0.4628246545711389  1.0000
  O   O8        1.0  0.13237633961341025  0.8933454055099758  0.5371753452048683  1.0000
  O   O9        1.0  0.06069506331588872  0.17371172068898594  0.5561056539193937  1.0000
  O   O10       1.0  0.9393049372309032  0.8262882791377353  0.44389434585891113  1.0000
  O   O11       1.0  0.007115398661498385  0.3711010091025651  0.49851075992222027  1.0000
  O   O12       1.0  0.9928846009388265  0.6288989913963587  0.5014892405426545  1.0000
  O   O13       1.0  0.7897327377455037  0.5176467467381334  0.3244679148326721  1.0000
  O   O14       1.0  0.21026726271788534  0.4823532537616787  0.6755320856345003  1.0000
  O   O15       1.0  0.6630800526917023  0.4981133797208965  0.3231748978084483  1.0000
  O   O16       1.0  0.33691994693208405  0.5018866200724632  0.6768251026564126  1.0000
  S   S1        1.0  0.3852127054426861  0.8339735205263654  0.021772826688051538  1.0000
  S   S2        1.0  0.6147872950806446  0.16602648000592024  0.9782271730902671  1.0000
  S   S3        1.0  0.4079384977521517  0.6149787268954859  0.019047457823380288  1.0000
  S   S4        1.0  0.5920615027946402  0.3850212729312354  0.9809525419549245  1.0000
  Cl  Cl1       1.0  0.8159915708404769  0.26113581704944655  0.8011006307018547  1.0000
  Cl  Cl2       1.0  0.18400842884325092  0.7388641827763865  0.19889936907415257  1.0000
  Cl  Cl3       1.0  0.10503782488985268  0.19606626325133997  0.7664355524774927  1.0000
  Cl  Cl4       1.0  0.8949621747938753  0.8039337365744932  0.2335644472985145  1.0000
  Br  Br1       1.0  0.36699399817888184  0.04707439556102234  0.835604089665444  1.0000
  Br  Br2       1.0  0.6330060015048461  0.9529256042648108  0.16439591011056323  1.0000
