data_image0
_chemical_formula_structural       H136C86N18O16P2S2
_chemical_formula_sum              "H136 C86 N18 O16 P2 S2"
_cell_length_a       12.160965560682618
_cell_length_b       12.034450642042346
_cell_length_c       18.205570154219853
_cell_angle_alpha    111.71004634547917
_cell_angle_beta     109.17276850563657
_cell_angle_gamma    88.7301521941301

_space_group_name_H-M_alt    "P 1"
_space_group_IT_number       1

loop_
  _space_group_symop_operation_xyz
  'x, y, z'

loop_
  _atom_site_type_symbol
  _atom_site_label
  _atom_site_symmetry_multiplicity
  _atom_site_fract_x
  _atom_site_fract_y
  _atom_site_fract_z
  _atom_site_occupancy
  H   H1        1.0  0.9201835168368457  0.5429414027575232  0.9499787236414049  1.0000
  H   H2        1.0  0.07981648335722887  0.4570585980234222  0.050021276762464095  1.0000
  H   H3        1.0  0.8455714200085238  0.8279671604187413  0.05812385741703022  1.0000
  H   H4        1.0  0.15442858017802213  0.17203283952167922  0.9418761429688136  1.0000
  H   H5        1.0  0.05869176202263067  0.2993391379413684  0.4605595592415738  1.0000
  H   H6        1.0  0.9413082378656685  0.7006608625178976  0.5394404405327281  1.0000
  H   H7        1.0  0.3786531729143553  0.5326009468920887  0.6455075959629337  1.0000
  H   H8        1.0  0.6213468272721906  0.46739905304833174  0.35449240442291  1.0000
  H   H9        1.0  0.6162757254109767  0.7663849026563695  0.9857725918052764  1.0000
  H   H10       1.0  0.38372427477556914  0.23361509728405097  0.014227408580567426  1.0000
  H   H11       1.0  0.8449915476773444  0.9865463443283793  0.17871088742365204  1.0000
  H   H12       1.0  0.1550084522034262  0.013453655290361756  0.8212891123326248  1.0000
  H   H13       1.0  0.8865631728067356  0.19795295221809642  0.3290676372991402  1.0000
  H   H14       1.0  0.11343682737981026  0.8020470477223242  0.6709323630867036  1.0000
  H   H15       1.0  0.5827948356687944  0.4683770727348567  0.6836731808475173  1.0000
  H   H16       1.0  0.41720516421197623  0.5316229268838842  0.3163268189087594  1.0000
  H   H17       1.0  0.7719426909511615  0.5091818952190166  0.827335929533354  1.0000
  H   H18       1.0  0.22805730893713774  0.49081810524024927  0.17266407024094785  1.0000
  H   H19       1.0  0.17149360402937722  0.8717896949379685  0.27231075314900954  1.0000
  H   H20       1.0  0.8285063958513933  0.12821030468077246  0.7276892466072673  1.0000
  H   H21       1.0  0.26652552167227095  0.8476428269618583  0.8775952757592291  1.0000
  H   H22       1.0  0.733474478514275  0.15235717297856216  0.12240472462661474  1.0000
  H   H23       1.0  0.4287208010278354  0.09818846564062009  0.510974056450182  1.0000
  H   H24       1.0  0.5712791991587105  0.9018115342998004  0.4890259439356618  1.0000
  H   H25       1.0  0.28685658157925836  0.2532640317412614  0.5331381135278117  1.0000
  H   H26       1.0  0.7131434186148161  0.746735969039684  0.46686188687605723  1.0000
  H   H27       1.0  0.25673905335045094  0.7021837619890352  0.7310497377078997  1.0000
  H   H28       1.0  0.7432609465303197  0.2978162376297057  0.26895026204837713  1.0000
  H   H29       1.0  0.28963138504248426  0.7335870150433155  0.31612609817357235  1.0000
  H   H30       1.0  0.7103686148382864  0.26641298457542556  0.6838739015827044  1.0000
  H   H31       1.0  0.43911345225323734  0.7396749453966315  0.32313001814271197  1.0000
  H   H32       1.0  0.5608865476350618  0.26032505506263426  0.67686998163159  1.0000
  H   H33       1.0  0.3350551996968008  0.7995473246545404  0.2552042126152165  1.0000
  H   H34       1.0  0.6649448001839698  0.20045267496420058  0.7447957871410603  1.0000
  H   H35       1.0  0.5578665801661954  0.8400221185262415  0.10318016062595786  1.0000
  H   H36       1.0  0.44213342002035055  0.15997788141417896  0.896819839759886  1.0000
  H   H37       1.0  0.5212613862154106  0.991699024238677  0.1378150160651719  1.0000
  H   H38       1.0  0.47873861397113526  0.008300975701743448  0.8621849843206719  1.0000
  H   H39       1.0  0.6150609644981431  0.9504293372366707  0.07626056882123995  1.0000
  H   H40       1.0  0.3849390356884027  0.04957066270374998  0.9237394315646039  1.0000
  H   H41       1.0  0.6921855131728758  0.8766974759722687  0.9001392514747182  1.0000
  H   H42       1.0  0.30781448670789485  0.12330252364647214  0.0998607482815585  1.0000
  H   H43       1.0  0.6861913387983088  0.9529421461672116  0.8079412805698639  1.0000
  H   H44       1.0  0.3138086613957657  0.04705785461373369  0.19205871983400497  1.0000
  H   H45       1.0  0.8138571197342285  0.04761313793478485  0.8296829146849142  1.0000
  H   H46       1.0  0.18614288014654215  0.9523868616839563  0.1703170850713626  1.0000
  H   H47       1.0  0.689590418707683  0.11375307546007668  0.8506110327720132  1.0000
  H   H48       1.0  0.31040958147886294  0.8862469244803439  0.14938896761383066  1.0000
  H   H49       1.0  0.8891409873988871  0.1315772448915825  0.06104991429805131  1.0000
  H   H50       1.0  0.11085901278765871  0.8684227550488378  0.9389500860877924  1.0000
  H   H51       1.0  0.827555931449368  0.22512716596800258  0.003713861469803013  1.0000
  H   H52       1.0  0.17244406874470652  0.7748728348129429  0.996286138934066  1.0000
  H   H53       1.0  0.94802344572966  0.14588800837438726  0.9864097114909716  1.0000
  H   H54       1.0  0.051976554158639235  0.8541119920848788  0.013590288283330417  1.0000
  H   H55       1.0  0.5623098232157366  0.5874471402817635  0.4787700177695004  1.0000
  H   H56       1.0  0.43769017697833795  0.41255286049918194  0.5212299826343686  1.0000
  H   H57       1.0  0.6720876674746035  0.6551807135063444  0.6084266899630186  1.0000
  H   H58       1.0  0.3279123327119424  0.344819286434076  0.3915733104228252  1.0000
  H   H59       1.0  0.6041842639118552  0.7033359581890994  0.6869830705729013  1.0000
  H   H60       1.0  0.3958157359689155  0.2966640414296415  0.3130169291833755  1.0000
  H   H61       1.0  0.6584494102846251  0.8112988903501097  0.6572660028058028  1.0000
  H   H62       1.0  0.3415505895961454  0.18870110926863123  0.3427339969504739  1.0000
  H   H63       1.0  0.32655427398018927  0.7303553156901467  0.5422911441597077  1.0000
  H   H64       1.0  0.6734457262063567  0.2696446842502738  0.4577088562261363  1.0000
  H   H65       1.0  0.42588739168369766  0.8657950990936962  0.5979192564652428  1.0000
  H   H66       1.0  0.5741126085103768  0.13420490168724888  0.40208074393862603  1.0000
  H   H67       1.0  0.4088803313510525  0.7718747553422773  0.6512932299757439  1.0000
  H   H68       1.0  0.5911196688354934  0.2281252445981432  0.3487067704100999  1.0000
  H   H69       1.0  0.9449896476263561  0.2518883085198221  0.20790547674837775  1.0000
  H   H70       1.0  0.05501035256771846  0.7481116922611234  0.7920945236554913  1.0000
  H   H71       1.0  0.061213910435997936  0.3227805824286647  0.3041786076176856  1.0000
  H   H72       1.0  0.9387860897580765  0.6772194183522805  0.6958213927861833  1.0000
  H   H73       1.0  0.9871803459652334  0.41400816004379953  0.16089184908869728  1.0000
  H   H74       1.0  0.012819653915537172  0.5859918395749414  0.8391081506675795  1.0000
  H   H75       1.0  0.10267442879507575  0.4820080710078372  0.25936054557518856  1.0000
  H   H76       1.0  0.8973255713914702  0.5179919289325834  0.7406394548106553  1.0000
  H   H77       1.0  0.8482596491573933  0.42913273320048545  0.24405504359496372  1.0000
  H   H78       1.0  0.15174035073090592  0.5708672672587802  0.7559449561793381  1.0000
  H   H79       1.0  0.9654062085477215  0.5086293886209975  0.33767146153886196  1.0000
  H   H80       1.0  0.03459379134057766  0.49137061183826836  0.6623285382354399  1.0000
  H   H81       1.0  0.09097060151080034  0.21873532164320406  0.1300369568480711  1.0000
  H   H82       1.0  0.9090293986757455  0.7812646782972166  0.8699630435377728  1.0000
  H   H83       1.0  0.12270297292885117  0.1480600439095092  0.20368568149117017  1.0000
  H   H84       1.0  0.8772970269519195  0.8519399557092319  0.7963143182651067  1.0000
  H   H85       1.0  0.20525645382301447  0.285074815458456  0.22843416744589023  1.0000
  H   H86       1.0  0.7947435463635314  0.7149251844819646  0.7715658329399536  1.0000
  H   H87       1.0  0.7610461459869645  0.4013557080506499  0.11597209711232286  1.0000
  H   H88       1.0  0.23895385389380616  0.5986442915680911  0.8840279026439539  1.0000
  H   H89       1.0  0.662399427918023  0.5080377647035531  0.13772735749595244  1.0000
  H   H90       1.0  0.3376005719627477  0.4919622349151879  0.8622726422603243  1.0000
  H   H91       1.0  0.9093087154498891  0.5686502120906682  0.14083452734911484  1.0000
  H   H92       1.0  0.09069128443088145  0.43134978752807285  0.859165472407162  1.0000
  H   H93       1.0  0.8116539374073692  0.6744810506896256  0.16809680333319488  1.0000
  H   H94       1.0  0.18834606247340124  0.3255189489291153  0.8319031964230819  1.0000
  H   H95       1.0  0.7362606702873837  0.576073644112045  0.27631259256520024  1.0000
  H   H96       1.0  0.26373932960091556  0.4239263563472208  0.7236874072091015  1.0000
  H   H97       1.0  0.8537624436282711  0.6528843530730379  0.3697503631844194  1.0000
  H   H98       1.0  0.14623755625249935  0.34711564654570304  0.6302496365718573  1.0000
  H   H99       1.0  0.053736172270975664  0.6552960550731854  0.25293981155096557  1.0000
  H   H100      1.0  0.946263827609795  0.3447039445455555  0.7470601882053112  1.0000
  H   H101      1.0  0.9708380473870627  0.7745091231641232  0.27980210175601045  1.0000
  H   H102      1.0  0.029161952493707743  0.22549087645461768  0.7201978980002662  1.0000
  H   H103      1.0  0.7745524637552048  0.4649780277635571  0.0024566924292230654  1.0000
  H   H104      1.0  0.22544753643886978  0.5350219730173882  0.997543307974646  1.0000
  H   H105      1.0  0.673313796431447  0.5691711044077145  0.021753602393108015  1.0000
  H   H106      1.0  0.3266862037550991  0.4308288955327061  0.9782463979927358  1.0000
  H   H107      1.0  0.07903357667270405  0.6583739576556407  0.4081165658040708  1.0000
  H   H108      1.0  0.9209664232080665  0.34162604196310026  0.591883433952206  1.0000
  H   H109      1.0  0.16851998552284328  0.7483537522327043  0.3900867308878105  1.0000
  H   H110      1.0  0.8314800143579274  0.2516462473860367  0.6099132688684662  1.0000
  H   H111      1.0  0.6252873802667067  0.2937025018731371  0.9591459465783497  1.0000
  H   H112      1.0  0.37471261992736793  0.7062974989078082  0.04085405382551933  1.0000
  H   H113      1.0  0.5727988036862107  0.38284021578505556  0.8983702582741467  1.0000
  H   H114      1.0  0.42720119650033517  0.6171597841553649  0.10162974211169706  1.0000
  H   H115      1.0  0.5211498897131907  0.39415934816440074  0.9814027555298179  1.0000
  H   H116      1.0  0.4788501101751087  0.605840652294865  0.01859724424448399  1.0000
  H   H117      1.0  0.9681582610860254  0.8301374893939879  0.4570223365552983  1.0000
  H   H118      1.0  0.03184173879474538  0.16986251022475327  0.5429776632009786  1.0000
  H   H119      1.0  0.0331548742370285  0.9153478615964706  0.4180111039359209  1.0000
  H   H120      1.0  0.9668451256437421  0.08465213802227037  0.581988895820356  1.0000
  H   H121      1.0  0.16999001118243523  0.8313367494911323  0.5591117045650746  1.0000
  H   H122      1.0  0.8300099886983353  0.16866325012760863  0.44088829519120226  1.0000
  H   H123      1.0  0.12742903842916228  0.9784968374652726  0.5748185038214906  1.0000
  H   H124      1.0  0.8725709614591368  0.02150316299399325  0.42518149595281124  1.0000
  H   H125      1.0  0.22842748129054177  0.9253462009370471  0.5216010640031357  1.0000
  H   H126      1.0  0.7715725188960042  0.0746537990033733  0.47839893638270814  1.0000
  H   H127      1.0  0.8278054232083397  0.8432255244715102  0.3293677333384801  1.0000
  H   H128      1.0  0.1721945769782061  0.1567744754689105  0.6706322670473638  1.0000
  H   H129      1.0  0.6692652958579114  0.967382839379488  0.3043112257300115  1.0000
  H   H130      1.0  0.3307347040303879  0.03261716107977783  0.6956887740442904  1.0000
  H   H131      1.0  0.5634028550576891  0.9235750671913311  0.3392252339831155  1.0000
  H   H132      1.0  0.43659714483061013  0.07642493326793469  0.6607747657911864  1.0000
  H   H133      1.0  0.5299027629806063  0.8888947636454548  0.23097485886206898  1.0000
  H   H134      1.0  0.4700972372059395  0.11110523629496581  0.7690251415237749  1.0000
  H   H135      1.0  0.5857479463774471  0.6986352323455177  0.25550944868263276  1.0000
  H   H136      1.0  0.4142520535033235  0.3013647672732234  0.744490551073644  1.0000
  C   C1        1.0  0.6122343986167824  0.5932114819330951  0.8195329790587271  1.0000
  C   C2        1.0  0.3877656012639881  0.4067885176856458  0.18046702069754955  1.0000
  C   C3        1.0  0.999411598498735  0.046761636734723416  0.29273026471885083  1.0000
  C   C4        1.0  0.0005884016878108671  0.9532383632056971  0.707269735666993  1.0000
  C   C5        1.0  0.5320390451143303  0.6715612731488859  0.8515347180686637  1.0000
  C   C6        1.0  0.4679609547739689  0.3284387273103798  0.14846528170563827  1.0000
  C   C7        1.0  0.537453729329197  0.751636763173567  0.9316366155860762  1.0000
  C   C8        1.0  0.462546270857349  0.24836323676685343  0.06836338479976763  1.0000
  C   C9        1.0  0.9323435388613713  0.9667737382404915  0.21051766106945083  1.0000
  C   C10       1.0  0.06765646101939929  0.03322626137824951  0.7894823386868259  1.0000
  C   C11       1.0  0.9613613699528392  0.6969888901804315  0.056935148638839396  1.0000
  C   C12       1.0  0.038638630241235275  0.30301111060051394  0.9430648517650296  1.0000
  C   C13       1.0  0.1515580134743822  0.14537166732482626  0.41605743403828455  1.0000
  C   C14       1.0  0.8484419864063886  0.8546283322939148  0.5839425657179923  1.0000
  C   C15       1.0  0.1187117392559091  0.03913178032748974  0.3419517010967495  1.0000
  C   C16       1.0  0.8812882606323902  0.9608682201317762  0.6580482986775525  1.0000
  C   C17       1.0  0.43985282586892205  0.8128609827728891  0.9388508592842726  1.0000
  C   C18       1.0  0.5601471740118484  0.18713901684585185  0.061149140472004204  1.0000
  C   C19       1.0  0.9672621161270823  0.15633797003842811  0.3409838220549785  1.0000
  C   C20       1.0  0.03273788376121674  0.8436620304208378  0.6590161777193234  1.0000
  C   C21       1.0  0.5520607805677913  0.5317885216360267  0.7319036233318676  1.0000
  C   C22       1.0  0.44793921931297925  0.46821147798271423  0.2680963764244091  1.0000
  C   C23       1.0  0.4291787673447772  0.6538501940946083  0.7809535092045982  1.0000
  C   C24       1.0  0.5708212325359933  0.3461498055241327  0.21904649055167863  1.0000
  C   C25       1.0  0.7290236788886872  0.5805985480843386  0.8622806224998937  1.0000
  C   C26       1.0  0.2709763212978586  0.41940145185608185  0.1377193778859502  1.0000
  C   C27       1.0  0.1974537765998342  0.953435542491041  0.32919201807085  1.0000
  C   C28       1.0  0.802546223288465  0.04656445796822467  0.6708079817034518  1.0000
  C   C29       1.0  0.3387442262656682  0.7957463875831722  0.8678472287853746  1.0000
  C   C30       1.0  0.6612557739208776  0.2042536123572483  0.13215277160046926  1.0000
  C   C31       1.0  0.30863384412999295  0.9773588557803247  0.3918251145022316  1.0000
  C   C32       1.0  0.6913661557583063  0.022641144678941204  0.6081748852720703  1.0000
  C   C33       1.0  0.34079058254702227  0.0839531762130889  0.4650244243307675  1.0000
  C   C34       1.0  0.6592094173412768  0.9160468242461769  0.5349755754435342  1.0000
  C   C35       1.0  0.26232929890070356  0.16919461610869954  0.4779704774321283  1.0000
  C   C36       1.0  0.7376707012858424  0.8308053838317209  0.5220295229537155  1.0000
  C   C37       1.0  0.3325106447384039  0.7163998341270883  0.7878529282285224  1.0000
  C   C38       1.0  0.6674893554556706  0.2836001666538571  0.21214707217534653  1.0000
  C   C39       1.0  0.3610032299240714  0.7871406787252162  0.31536443931111224  1.0000
  C   C40       1.0  0.6389967699642278  0.2128593217340497  0.6846355604631897  1.0000
  C   C41       1.0  0.5392097776072389  0.9193894966570059  0.08662093723596428  1.0000
  C   C42       1.0  0.4607902222735317  0.08061050296173525  0.9133790625203124  1.0000
  C   C43       1.0  0.7540615120930471  0.9499461510225383  0.9548208489069852  1.0000
  C   C44       1.0  0.24593848809349875  0.05005384891788211  0.04517915147885863  1.0000
  C   C45       1.0  0.7415374558957617  0.03775945395700897  0.8513126560294476  1.0000
  C   C46       1.0  0.25846254429078436  0.9622405459834115  0.1486873443563962  1.0000
  C   C47       1.0  0.867619821355439  0.1414659343503526  0.0007264309176533458  1.0000
  C   C48       1.0  0.1323801788311069  0.858534065590068  0.9992735694681905  1.0000
  C   C49       1.0  0.48609938607321507  0.6360962788506207  0.4873625389384882  1.0000
  C   C50       1.0  0.5139006138075555  0.36390372076812033  0.5126374608177885  1.0000
  C   C51       1.0  0.6152928878964943  0.7190916099105896  0.6339204218655549  1.0000
  C   C52       1.0  0.3847071122900516  0.28090839002983087  0.36607957852028905  1.0000
  C   C53       1.0  0.4109690043483089  0.7721921305577026  0.5915357224148702  1.0000
  C   C54       1.0  0.5890309958382369  0.22780786938271783  0.4084642779709736  1.0000
  C   C55       1.0  0.03137178142368518  0.305738341109335  0.23667505882456696  1.0000
  C   C56       1.0  0.9686282187628608  0.6942616588310856  0.763324941561277  1.0000
  C   C57       1.0  0.01675819739331251  0.42737503136927485  0.22802976445048284  1.0000
  C   C58       1.0  0.9832418028007621  0.5726249694116706  0.7719702359533862  1.0000
  C   C59       1.0  0.9302610587464675  0.48849275250091434  0.26975548025255003  1.0000
  C   C60       1.0  0.06973894113430304  0.5115072471178266  0.7302445195037267  1.0000
  C   C61       1.0  0.11710538206490227  0.23545406022245735  0.19737728368631455  1.0000
  C   C62       1.0  0.8828946178158683  0.7645459393962837  0.8026227160699623  1.0000
  C   C63       1.0  0.7363301728238884  0.48907534309582534  0.11437633974208514  1.0000
  C   C64       1.0  0.26366982705688236  0.5109246565229156  0.8856236600141916  1.0000
  C   C65       1.0  0.8389224820857363  0.5866963503642736  0.1675620423570021  1.0000
  C   C66       1.0  0.16107751810833829  0.4133036504166717  0.8324379580468669  1.0000
  C   C67       1.0  0.8085556382202126  0.6488073885861375  0.3052231847928449  1.0000
  C   C68       1.0  0.1914443616605581  0.35119261103260346  0.694776814963432  1.0000
  C   C69       1.0  0.002897651044222927  0.696230631727217  0.29394307579287393  1.0000
  C   C70       1.0  0.9971023488440762  0.3037693687320488  0.7060569239814279  1.0000
  C   C71       1.0  0.6983074855743411  0.48137099884067025  0.023489418958721708  1.0000
  C   C72       1.0  0.30169251430642946  0.5186290007780707  0.9765105807975551  1.0000
  C   C73       1.0  0.07754598991467931  0.7326206391707946  0.3862938127947695  1.0000
  C   C74       1.0  0.9224540099660913  0.26737936044794647  0.6137061869615074  1.0000
  C   C75       1.0  0.5986682439902233  0.38263267499797005  0.9621048367990366  1.0000
  C   C76       1.0  0.40133175589054715  0.617367324620771  0.03789516295724011  1.0000
  C   C77       1.0  0.04903268754268254  0.8474347552104435  0.4464849931939273  1.0000
  C   C78       1.0  0.9509673123380878  0.15256524440829738  0.5535150065623493  1.0000
  C   C79       1.0  0.1494669416846654  0.8986205016421069  0.5305621707480503  1.0000
  C   C80       1.0  0.8505330581961051  0.10137949797663415  0.46943782900822645  1.0000
  C   C81       1.0  0.7637965734313344  0.7640570601880102  0.3032218514373554  1.0000
  C   C82       1.0  0.23620342644943618  0.23594293943073077  0.6967781483189214  1.0000
  C   C83       1.0  0.6013441009818977  0.8955886221504379  0.28871788050826885  1.0000
  C   C84       1.0  0.39865589890640146  0.10441137830882805  0.711282119266033  1.0000
  C   C85       1.0  0.6494443824892057  0.7779690559345058  0.27974378267380196  1.0000
  C   C86       1.0  0.35055561739156493  0.22203094368423526  0.7202562170824748  1.0000
  N   N1        1.0  0.8939573630561997  0.6279123469680761  0.9763579429762236  1.0000
  N   N2        1.0  0.10604263713034624  0.3720876529723446  0.023642057409620325  1.0000
  N   N3        1.0  0.9790997551582045  0.8717522979840314  0.1739189235683369  1.0000
  N   N4        1.0  0.02090024473009489  0.12824770247523437  0.8260810762059649  1.0000
  N   N5        1.0  0.7849034805763272  0.6525655014241463  0.9408339898526649  1.0000
  N   N6        1.0  0.21509651961774734  0.347434499356799  0.05916601055120403  1.0000
  N   N7        1.0  0.917069476742349  0.7988943016718314  0.09438690888041322  1.0000
  N   N8        1.0  0.08293052344419698  0.201105698268589  0.9056130915054306  1.0000
  N   N9        1.0  0.057312403573888795  0.21351312715593337  0.4122927936937001  1.0000
  N   N10       1.0  0.9426875963144105  0.7864868733033324  0.5877072060806018  1.0000
  N   N11       1.0  0.4452578825227256  0.5689254966972361  0.7099623821893034  1.0000
  N   N12       1.0  0.5547421176638203  0.4310745032431845  0.2900376181965405  1.0000
  N   N13       1.0  0.787321528263325  0.038272986573409495  0.9357730205796821  1.0000
  N   N14       1.0  0.21267847192322087  0.9617270133670112  0.06422697980616164  1.0000
  N   N15       1.0  0.5021208274964692  0.7026841660093192  0.5690116540471546  1.0000
  N   N16       1.0  0.49787917239182994  0.29731583444994664  0.43098834572714734  1.0000
  N   N17       1.0  0.8952617154215377  0.6049256712307567  0.2592898252896137  1.0000
  N   N18       1.0  0.10473828445923279  0.39507432838798434  0.740710174466663  1.0000
  O   O1        1.0  0.4355564853165493  0.8931885649183332  0.014106294972255302  1.0000
  O   O2        1.0  0.5644435145642213  0.1068114347004078  0.9858937047840215  1.0000
  O   O3        1.0  0.39279459594134053  0.900116649608891  0.3857280985182661  1.0000
  O   O4        1.0  0.6072054039469587  0.09988335085037464  0.6142719012560358  1.0000
  O   O5        1.0  0.2956065169607076  0.4724749126477154  0.5624487881138173  1.0000
  O   O6        1.0  0.7043934829275916  0.5275250878115504  0.4375512116604846  1.0000
  O   O7        1.0  0.1353495303245457  0.5019340426901234  0.4456555888603946  1.0000
  O   O8        1.0  0.8646504698620001  0.49806595725029706  0.5543444115254492  1.0000
  O   O9        1.0  0.16681594162055016  0.6397032545350753  0.5987269521388893  1.0000
  O   O10       1.0  0.833184058267749  0.36029674592419053  0.4012730476354126  1.0000
  O   O11       1.0  0.08967820914847209  0.41727335334271115  0.5425387906382271  1.0000
  O   O12       1.0  0.9103217910380739  0.5827266465977093  0.45746120974761667  1.0000
  O   O13       1.0  0.7883013161376086  0.9480207147425526  0.026944275947968978  1.0000
  O   O14       1.0  0.21169868404893738  0.05197928519786787  0.9730557244378749  1.0000
  O   O15       1.0  0.3963772218124751  0.6295699066273562  0.4271463912048033  1.0000
  O   O16       1.0  0.6036227780682955  0.37043009299138474  0.5728536085514735  1.0000
  P   P1        1.0  0.16942228223612546  0.5122738994076175  0.5376253678796282  1.0000
  P   P2        1.0  0.8305777179504205  0.4877261005328031  0.46237463250621563  1.0000
  S   S1        1.0  0.09102693496809798  0.65627583155098  0.10426850896454563  1.0000
  S   S2        1.0  0.9089730649202012  0.3437241689082858  0.8957314908097562  1.0000
