data_image0
_chemical_formula_structural       H48C104N8Cl16
_chemical_formula_sum              "H48 C104 N8 Cl16"
_cell_length_a       17.45615304420534
_cell_length_b       7.604891483839603
_cell_length_c       16.340210921658517
_cell_angle_alpha    90.0
_cell_angle_beta     71.43706071010966
_cell_angle_gamma    90.0

_space_group_name_H-M_alt    "P 1"
_space_group_IT_number       1

loop_
  _space_group_symop_operation_xyz
  'x, y, z'

loop_
  _atom_site_type_symbol
  _atom_site_label
  _atom_site_symmetry_multiplicity
  _atom_site_fract_x
  _atom_site_fract_y
  _atom_site_fract_z
  _atom_site_occupancy
  H   H1        1.0  0.6967977630946782  0.5282720849517822  0.3601709492280672  1.0000
  H   H2        1.0  0.8032022368739548  0.02827208520422522  0.13982905102639298  1.0000
  H   H3        1.0  0.3032022369841731  0.47172791585827495  0.6398290510623373  1.0000
  H   H4        1.0  0.19679776320489656  0.9717279156058319  0.8601709492640116  1.0000
  H   H5        1.0  0.5720541873917467  0.38399818540548053  0.4469506347906595  1.0000
  H   H6        1.0  0.9279458127716402  0.8839981851530376  0.05304936481823283  1.0000
  H   H7        1.0  0.42794581288185857  0.6160018154045767  0.5530493648541773  1.0000
  H   H8        1.0  0.072054187501965  0.11600181434207647  0.9469506348266039  1.0000
  H   H9        1.0  0.49258937868211455  0.23853375999576065  0.577324405393866  1.0000
  H   H10       1.0  0.007410621701709024  0.7385337597433177  0.9226755942869151  1.0000
  H   H11       1.0  0.5074106215914908  0.7614662394993533  0.42267559425097073  1.0000
  H   H12       1.0  0.9925893785718962  0.2614662397517964  0.07732440535792158  1.0000
  H   H13       1.0  0.47628847038931327  0.12444105113281587  0.7255014687840783  1.0000
  H   H14       1.0  0.023711529227695934  0.6244410508803729  0.7744985315395909  1.0000
  H   H15       1.0  0.5237115291174776  0.8755589496772413  0.27449853150364656  1.0000
  H   H16       1.0  0.9762884708511556  0.37555894861474115  0.22550146875081375  1.0000
  H   H17       1.0  0.5866718916819011  0.16946302557223727  0.7893176048466714  1.0000
  H   H18       1.0  0.9133281079616925  0.6694630253197943  0.7106823952634718  1.0000
  H   H19       1.0  0.4133281083969502  0.8305369739228768  0.2106823954437333  1.0000
  H   H20       1.0  0.08667189154509848  0.33053697417531974  0.289317605024253  1.0000
  H   H21       1.0  0.7104610372621067  0.3236892735722722  0.7094076802143238  1.0000
  H   H22       1.0  0.7895389629535472  0.8236892733198292  0.7905923198984993  1.0000
  H   H23       1.0  0.2895389628167445  0.6763107272377851  0.2905923200760809  1.0000
  H   H24       1.0  0.21046103732005805  0.17631072749022803  0.20940767974633748  1.0000
  H   H25       1.0  0.807994697424795  0.44700946715989975  0.6431198078557595  1.0000
  H   H26       1.0  0.6920053024135526  0.9470094669074568  0.8568801916088158  1.0000
  H   H27       1.0  0.1920053028488103  0.5529905323352143  0.3568801917890773  1.0000
  H   H28       1.0  0.30799469728799234  0.052990532587657305  0.1431198080333411  1.0000
  H   H29       1.0  0.9331964975285403  0.5867090844729937  0.5554519136599585  1.0000
  H   H30       1.0  0.5668035021150534  0.08670908472543669  0.9445480864501846  1.0000
  H   H31       1.0  0.06680350255031116  0.4132909163370635  0.4445480866304462  1.0000
  H   H32       1.0  0.4331964975864915  0.9132909160846205  0.05545191319197221  1.0000
  H   H33       1.0  0.01595124280362628  0.7196915868728043  0.42147662823608106  1.0000
  H   H34       1.0  0.4840487573331764  0.21969158581030424  0.07852337158633733  1.0000
  H   H35       1.0  0.984048757469979  0.28030841393725275  0.5785233714087558  1.0000
  H   H36       1.0  0.5159512429404289  0.7803084136848097  0.9214766280584995  1.0000
  H   H37       1.0  0.03484241076831692  0.8198523283664387  0.2713225253399632  1.0000
  H   H38       1.0  0.4651575893684857  0.31985232861888174  0.22867747448245512  1.0000
  H   H39       1.0  0.9651575893105344  0.18014767112867525  0.7286774749504414  1.0000
  H   H40       1.0  0.5348424109051195  0.6801476708762323  0.7713225251623816  1.0000
  H   H41       1.0  0.9226956867500418  0.7861462366299946  0.20938870912270738  1.0000
  H   H42       1.0  0.5773043134133453  0.2861462368824377  0.290611290486185  1.0000
  H   H43       1.0  0.07730431352356368  0.21385376286511934  0.7906112905221294  1.0000
  H   H44       1.0  0.42269568686025993  0.7138537626126763  0.7093887091586517  1.0000
  H   H45       1.0  0.7944967775807349  0.6513805937305706  0.29378227069283813  1.0000
  H   H46       1.0  0.705503222582652  0.1513805939830135  0.2062177289160542  1.0000
  H   H47       1.0  0.2055032226928703  0.34861940576454353  0.7062177289519986  1.0000
  H   H48       1.0  0.2944967776909532  0.8486194055121005  0.7937822707287826  1.0000
  C   C1        1.0  0.7335601248517998  0.9275834079934101  0.5706542196877581  1.0000
  C   C2        1.0  0.7664398749865478  0.42758340824585306  0.9293457797768171  1.0000
  C   C3        1.0  0.2664398754218055  0.07241659150170399  0.42934577995707857  1.0000
  C   C4        1.0  0.23356012471499715  0.5724165925642042  0.07065421986533979  1.0000
  C   C5        1.0  0.6828661105431558  0.9208289605290176  0.518259959950361  1.0000
  C   C6        1.0  0.8171338896724981  0.4208289607814606  0.9817400401624621  1.0000
  C   C7        1.0  0.3171338895356953  0.07917103896609641  0.4817400403400437  1.0000
  C   C8        1.0  0.18286611060110725  0.5791710387136535  0.01825995948237469  1.0000
  C   C9        1.0  0.7095914359149468  0.9922760707415189  0.43462089525457587  1.0000
  C   C10       1.0  0.7904085640536862  0.4922760709939618  0.06537910499988439  1.0000
  C   C11       1.0  0.2904085641639045  0.007723928753595203  0.5653791050358288  1.0000
  C   C12       1.0  0.20959143602516508  0.5077239285011522  0.9346208952905203  1.0000
  C   C13       1.0  0.7862923263691074  0.07121003385134192  0.40312080874822787  1.0000
  C   C14       1.0  0.7137076735995256  0.5712100335988989  0.0968791915062324  1.0000
  C   C15       1.0  0.2137076737097439  0.9287899669587153  0.5968791915421768  1.0000
  C   C16       1.0  0.2862923264793257  0.4287899658962151  0.9031208087841723  1.0000
  C   C17       1.0  0.8369153793396803  0.07754078953698287  0.4552890362274939  1.0000
  C   C18       1.0  0.6630846206289527  0.5775407892845399  0.044710964026966366  1.0000
  C   C19       1.0  0.1630846201671106  0.9224592112730743  0.5447109640602308  1.0000
  C   C20       1.0  0.33691537944989863  0.4224592115255173  0.9552890362634384  1.0000
  C   C21       1.0  0.8104492926519229  0.005140934631753726  0.5389919069248073  1.0000
  C   C22       1.0  0.6895507069916705  0.5051409343793107  0.961008093185336  1.0000
  C   C23       1.0  0.1895507076216823  0.9948590648633603  0.4610080927200295  1.0000
  C   C24       1.0  0.3104492925151203  0.4948590651158033  0.038991907102388854  1.0000
  C   C25       1.0  0.7063521473481313  0.8553188817779047  0.6551592508564575  1.0000
  C   C26       1.0  0.7936478528675226  0.3553188807154046  0.8448407492563655  1.0000
  C   C27       1.0  0.29364785292547385  0.14468111903215244  0.3448407487883792  1.0000
  C   C28       1.0  0.20635214721132875  0.6446811187797095  0.15515925103403916  1.0000
  C   C29       1.0  0.6053805075953571  0.8414659793106087  0.5503018426307428  1.0000
  C   C30       1.0  0.8946194920482364  0.3414659795630517  0.9496981574794003  1.0000
  C   C31       1.0  0.3946194921061878  0.15853402149944842  0.4496981570114141  1.0000
  C   C32       1.0  0.10538050803061487  0.6585340212470054  0.05030184281100427  1.0000
  C   C33       1.0  0.6909098765817162  0.48772048199264334  0.42574161793788157  1.0000
  C   C34       1.0  0.8090901233869169  0.9877204830551436  0.07425838231657862  1.0000
  C   C35       1.0  0.3090901234971352  0.5122795175024707  0.574258382352523  1.0000
  C   C36       1.0  0.19090987669193446  0.01227951775491365  0.925741617973826  1.0000
  C   C37       1.0  0.6210519585724384  0.4068485758902457  0.4736206962862291  1.0000
  C   C38       1.0  0.8789480415909485  0.9068485756378027  0.02637930332266324  1.0000
  C   C39       1.0  0.3789480417011668  0.5931514236048684  0.5263793033586076  1.0000
  C   C40       1.0  0.12105195811059645  0.09315142385731132  0.9736206963194936  1.0000
  C   C41       1.0  0.6108823941124981  0.34777368298024514  0.5591338712295694  1.0000
  C   C42       1.0  0.8891176055310954  0.8477736827278021  0.9408661288805736  1.0000
  C   C43       1.0  0.3891176055890468  0.652226317829812  0.4408661284125875  1.0000
  C   C44       1.0  0.11088239454775586  0.1522263167673119  0.059133871409830945  1.0000
  C   C45       1.0  0.5395220091783277  0.2589230976121487  0.6072933556345124  1.0000
  C   C46       1.0  0.9604779904652659  0.7589230973597058  0.8927066444756308  1.0000
  C   C47       1.0  0.4604779905232173  0.7410769031979085  0.39270664400764443  1.0000
  C   C48       1.0  0.03952200904152499  0.24107690345035146  0.10729335581209404  1.0000
  C   C49       1.0  0.5305040237560598  0.19607476229853457  0.6892187990081223  1.0000
  C   C50       1.0  0.9694959758875339  0.6960747620460916  0.8107812011020208  1.0000
  C   C51       1.0  0.4694959759454851  0.8039252371965795  0.3107812006340346  1.0000
  C   C52       1.0  0.03050402361925708  0.30392523744902245  0.18921879918570395  1.0000
  C   C53       1.0  0.5928509546777659  0.22181959119136582  0.7254242136112312  1.0000
  C   C54       1.0  0.9071490449658277  0.7218195909389228  0.774575786498912  1.0000
  C   C55       1.0  0.40714904540108526  0.7781804083037482  0.27457578667917354  1.0000
  C   C56       1.0  0.0928509545409633  0.27818040855619125  0.2254242137888128  1.0000
  C   C57       1.0  0.6630851085706732  0.3091595277849974  0.6798360798300009  1.0000
  C   C58       1.0  0.8369148916449809  0.8091595288474976  0.8201639202828223  1.0000
  C   C59       1.0  0.3369148915081782  0.6908404717101166  0.3201639204604038  1.0000
  C   C60       1.0  0.1630851086286244  0.1908404719625596  0.1798360793620146  1.0000
  C   C61       1.0  0.6743791451984382  0.3742867608365777  0.5955921268212592  1.0000
  C   C62       1.0  0.8256208546399092  0.8742867605841347  0.9044078726433161  1.0000
  C   C63       1.0  0.325620855075167  0.6257132399734795  0.40440787282357765  1.0000
  C   C64       1.0  0.17437914506163568  0.12571324022592245  0.09559212699884072  1.0000
  C   C65       1.0  0.7478977899543837  0.46140892311961995  0.5446514103029031  1.0000
  C   C66       1.0  0.7521022096892098  0.9614089241821201  0.9553485898072401  1.0000
  C   C67       1.0  0.25210221012446765  0.5385910763754941  0.45534858998750155  1.0000
  C   C68       1.0  0.247897790012335  0.03859107662793705  0.04465140983491681  1.0000
  C   C69       1.0  0.813268417404737  0.4898318638623414  0.5780345272221794  1.0000
  C   C70       1.0  0.6867315822388567  0.9898318649248417  0.9219654728879637  1.0000
  C   C71       1.0  0.1867315828688684  0.5101681356327726  0.42196547242265736  1.0000
  C   C72       1.0  0.31326841726793425  0.010168135885215602  0.078034527399761  1.0000
  C   C73       1.0  0.8835343647216274  0.5680817036219946  0.529305261858582  1.0000
  C   C74       1.0  0.6164656349219663  0.06808170387443757  0.970694738251561  1.0000
  C   C75       1.0  0.11646563535722386  0.4319182958731194  0.4706947384318227  1.0000
  C   C76       1.0  0.3835343645848248  0.9319182956206764  0.029305262036163637  1.0000
  C   C77       1.0  0.8943501882969194  0.6254256803147195  0.44342508847887036  1.0000
  C   C78       1.0  0.6056498118664677  0.12542568056716244  0.05657491113002199  1.0000
  C   C79       1.0  0.105649811976686  0.3745743191803946  0.5565749111659665  1.0000
  C   C80       1.0  0.39435018840713754  0.8745743189279516  0.9434250885148148  1.0000
  C   C81       1.0  0.9676808745849083  0.7039475712935643  0.39299897347026636  1.0000
  C   C82       1.0  0.5323191253837246  0.20394757154600743  0.10700102678419389  1.0000
  C   C83       1.0  0.03231912549394297  0.2960524282015496  0.6070010268201383  1.0000
  C   C84       1.0  0.46768087469512665  0.7960524279491066  0.8929989735062108  1.0000
  C   C85       1.0  0.9779888009204135  0.7606789988118666  0.3098153730621797  1.0000
  C   C86       1.0  0.5220111984761592  0.26067899906430964  0.19018462718960064  1.0000
  C   C87       1.0  0.022011198586377408  0.2393210006832474  0.6901846272255452  1.0000
  C   C88       1.0  0.47798880103063174  0.7393210004308044  0.8098153730981241  1.0000
  C   C89       1.0  0.9143848925946103  0.7414010327407479  0.27492942629993844  1.0000
  C   C90       1.0  0.5856151073740227  0.2414010316782477  0.22507057395452176  1.0000
  C   C91       1.0  0.08561510748424098  0.2585989680693093  0.7250705739904663  1.0000
  C   C92       1.0  0.41438489213276825  0.7585989678168664  0.774929426333203  1.0000
  C   C93       1.0  0.8422466919952343  0.6640857704191953  0.3229337546040242  1.0000
  C   C94       1.0  0.6577533079733988  0.16408577067163826  0.17706624565043608  1.0000
  C   C95       1.0  0.15775330808361712  0.3359142290759187  0.6770662456863804  1.0000
  C   C96       1.0  0.34224669210545255  0.8359142288234758  0.8229337546399687  1.0000
  C   C97       1.0  0.8300302040848662  0.6023322699257351  0.40786910377878927  1.0000
  C   C98       1.0  0.6699697960785209  0.1023322701781781  0.09213089583010306  1.0000
  C   C99       1.0  0.1699697961887392  0.39766772956937896  0.5921308958660475  1.0000
  C   C100      1.0  0.33003020419508433  0.897667729316936  0.9078691038147337  1.0000
  C   C101      1.0  0.7560048487513874  0.5177989269627102  0.4592980849906968  1.0000
  C   C102      1.0  0.7439951514119996  0.017798927215153262  0.04070191461819552  1.0000
  C   C103      1.0  0.2439951515222178  0.4822010738473469  0.54070191465414  1.0000
  C   C104      1.0  0.2560048488616058  0.9822010735949039  0.9592980850266413  1.0000
  N   N1        1.0  0.6828687053366939  0.7957574007281701  0.7245276141670346  1.0000
  N   N2        1.0  0.8171312943068998  0.2957574009806132  0.7754723859431086  1.0000
  N   N3        1.0  0.3171312941700971  0.2042425987669438  0.27547238612069025  1.0000
  N   N4        1.0  0.18286870596670554  0.7042425985145009  0.22452761370172816  1.0000
  N   N5        1.0  0.5421538735919521  0.7744299090283003  0.5767567246671765  1.0000
  N   N6        1.0  0.9578461266237017  0.27442990928074334  0.9232432754456464  1.0000
  N   N7        1.0  0.4578461266816532  0.2255700917817568  0.42324327497766023  1.0000
  N   N8        1.0  0.04215387345514944  0.7255700915293138  0.07675672484475814  1.0000
  Cl  Cl1       1.0  0.6478722921983148  0.9823493005620336  0.37214426486417795  1.0000
  Cl  Cl2       1.0  0.8521277079650722  0.48234930081447663  0.1278557347447144  1.0000
  Cl  Cl3       1.0  0.35212770807529054  0.017650698933080414  0.6278557347806588  1.0000
  Cl  Cl4       1.0  0.14787229230853308  0.5176506999955807  0.8721442649001224  1.0000
  Cl  Cl5       1.0  0.8181427731281739  0.15965838599803073  0.30202642504482385  1.0000
  Cl  Cl6       1.0  0.6818572268404592  0.6596583857455878  0.1979735752096364  1.0000
  Cl  Cl7       1.0  0.18185722695067746  0.8403416148120265  0.6979735752455809  1.0000
  Cl  Cl8       1.0  0.31814277323839213  0.3403416150644694  0.8020264250807683  1.0000
  Cl  Cl9       1.0  0.929867596113155  0.17176532009375753  0.41708852082658365  1.0000
  Cl  Cl10      1.0  0.5701324038554779  0.6717653198413145  0.08291147942787658  1.0000
  Cl  Cl11      1.0  0.0701324039656963  0.8282346794013565  0.582911479463821  1.0000
  Cl  Cl12      1.0  0.4298675962233734  0.3282346796537995  0.917088520862528  1.0000
  Cl  Cl13      1.0  0.8701553967511877  0.012032695035090657  0.6034164443003587  1.0000
  Cl  Cl14      1.0  0.6298446028924061  0.5120326947826477  0.8965835558097844  1.0000
  Cl  Cl15      1.0  0.12984460332766373  0.9879673044600235  0.39658355599004597  1.0000
  Cl  Cl16      1.0  0.3701553966143849  0.48796730471246635  0.10341644447794035  1.0000
