data_image0
_chemical_formula_structural       H88C100N8O24S4
_chemical_formula_sum              "H88 C100 N8 O24 S4"
_cell_length_a       12.478080843113542
_cell_length_b       7.6893029075598145
_cell_length_c       23.506699843011646
_cell_angle_alpha    90.0
_cell_angle_beta     91.78044186576119
_cell_angle_gamma    90.0

_space_group_name_H-M_alt    "P 1"
_space_group_IT_number       1

loop_
  _space_group_symop_operation_xyz
  'x, y, z'

loop_
  _atom_site_type_symbol
  _atom_site_label
  _atom_site_symmetry_multiplicity
  _atom_site_fract_x
  _atom_site_fract_y
  _atom_site_fract_z
  _atom_site_occupancy
  H   H1        1.0  0.10789440834789249  0.9302122085693578  0.058015050581456805  1.0000
  H   H2        1.0  0.892105591699868  0.4302122090609378  0.44198494926624193  1.0000
  H   H3        1.0  0.8921055919830057  0.06978779044748222  0.9419849493375005  1.0000
  H   H4        1.0  0.10789440863103003  0.5697877912564103  0.5580150506527155  1.0000
  H   H5        1.0  0.030021378280991714  0.01569651260341653  0.1491620732484985  1.0000
  H   H6        1.0  0.96997862176638  0.5156965121118366  0.3508379270246044  1.0000
  H   H7        1.0  0.9699786220495175  0.9843034877139315  0.850837927095863  1.0000
  H   H8        1.0  0.030021377762725947  0.4843034869050035  0.649162072880923  1.0000
  H   H9        1.0  0.8472175977572162  0.9139817424919582  0.17399497650020257  1.0000
  H   H10       1.0  0.1527824022905444  0.4139817429835382  0.32600502334749615  1.0000
  H   H11       1.0  0.15278240257368195  0.08601825782538987  0.8260050234187548  1.0000
  H   H12       1.0  0.8472175972385614  0.58601825733381  0.6739949765580312  1.0000
  H   H13       1.0  0.09475895568368012  0.7842950749242659  0.968580289430875  1.0000
  H   H14       1.0  0.9052410441285632  0.28429507411533783  0.5314197105459111  1.0000
  H   H15       1.0  0.905241044647218  0.21570492539308223  0.03141971048808242  1.0000
  H   H16       1.0  0.09475895540054258  0.7157049249015023  0.4685802893596163  1.0000
  H   H17       1.0  0.8540645836046126  0.4489533266540971  0.8640942755708219  1.0000
  H   H18       1.0  0.1459354162076309  0.9489533274630253  0.6359057244059643  1.0000
  H   H19       1.0  0.14593541592449336  0.551046672362743  0.1359057243347055  1.0000
  H   H20       1.0  0.8540645841232671  0.05104667285432294  0.36409427551299317  1.0000
  H   H21       1.0  0.9140477013547705  0.36931761489172543  0.7675613355201093  1.0000
  H   H22       1.0  0.08595229845747279  0.8693176157006535  0.7324386644566767  1.0000
  H   H23       1.0  0.08595229897612754  0.6306823841251147  0.23243866439884817  1.0000
  H   H24       1.0  0.9140477010712441  0.13068238461669462  0.26756133587425474  1.0000
  H   H25       1.0  0.09483626001070293  0.4782764737209558  0.7361708962951248  1.0000
  H   H26       1.0  0.9051637406033327  0.9782764745298838  0.7638291036950914  1.0000
  H   H27       1.0  0.9051637403201953  0.5217235252958844  0.2638291036238326  1.0000
  H   H28       1.0  0.0948362597275654  0.02172352578746432  0.23617089622386614  1.0000
  H   H29       1.0  0.15132574817220645  0.7334421192401347  0.888392399806636  1.0000
  H   H30       1.0  0.8486742524418291  0.2334421197317147  0.6116076001835802  1.0000
  H   H31       1.0  0.8486742521586916  0.26655788107721334  0.11160760011232142  1.0000
  H   H32       1.0  0.15132574788867995  0.7665578805856333  0.3883924001607814  1.0000
  H   H33       1.0  0.7188925853372182  0.7130401657879218  0.19609306583262742  1.0000
  H   H34       1.0  0.2811074147101534  0.21304016627950187  0.30390693444047545  1.0000
  H   H35       1.0  0.2811074149932909  0.2869598345294262  0.8039069345117342  1.0000
  H   H36       1.0  0.7188925848189525  0.7869598340378462  0.696093065465052  1.0000
  H   H37       1.0  0.5943554469900489  0.6904488253129338  0.1564612715054204  1.0000
  H   H38       1.0  0.4056445530577117  0.19044882580451372  0.34353872834227833  1.0000
  H   H39       1.0  0.4056445525390569  0.30955117370390633  0.843538728400107  1.0000
  H   H40       1.0  0.5943554472731866  0.8095511745128344  0.6564612715766791  1.0000
  H   H41       1.0  0.6622961963450182  0.8958132034605918  0.1580973763595417  1.0000
  H   H42       1.0  0.3377038037027424  0.39581320265166375  0.341902623488157  1.0000
  H   H43       1.0  0.3377038039858799  0.10418679685675632  0.8419026235594157  1.0000
  H   H44       1.0  0.6622961958263635  0.6041867963651764  0.6580973764173704  1.0000
  H   H45       1.0  0.8891205728892653  0.5966605770582085  0.9520958028707366  1.0000
  H   H46       1.0  0.1108794277243814  0.09666057754978855  0.5479041975448837  1.0000
  H   H47       1.0  0.11087942744124386  0.40333942325913946  0.04790419747362501  1.0000
  H   H48       1.0  0.8891205726061278  0.9033394227675596  0.4520958027994779  1.0000
  H   H49       1.0  0.7837485331025448  0.28219999733221857  0.22154288475687814  1.0000
  H   H50       1.0  0.21625146694482691  0.7821999968406387  0.2784571155162247  1.0000
  H   H51       1.0  0.21625146642617218  0.7178000029851295  0.7784571155740534  1.0000
  H   H52       1.0  0.7837485333856823  0.2178000034767095  0.721542884828137  1.0000
  H   H53       1.0  0.27744637552475593  0.527014365114407  0.9681561964517402  1.0000
  H   H54       1.0  0.7225536242874875  0.027014364305479033  0.5318438035250459  1.0000
  H   H55       1.0  0.722553624806142  0.47298563520294107  0.03184380346721721  1.0000
  H   H56       1.0  0.2774463752416184  0.9729856360118692  0.4681561963804815  1.0000
  H   H57       1.0  0.49099836059184915  0.32669692301108755  0.10366671960875387  1.0000
  H   H58       1.0  0.5090016394559115  0.8266969225195077  0.3963332802389448  1.0000
  H   H59       1.0  0.5090016389372568  0.6733030773062606  0.8963332802967735  1.0000
  H   H60       1.0  0.49099836087498666  0.17330307779784054  0.6036667196800126  1.0000
  H   H61       1.0  0.6730238622826991  0.3471028430127219  0.14592465055010978  1.0000
  H   H62       1.0  0.3269761377650614  0.8471028438216499  0.354075349297589  1.0000
  H   H63       1.0  0.32697613724640673  0.6528971573046263  0.8540753493554176  1.0000
  H   H64       1.0  0.6730238625658367  0.15289715649569818  0.6459246506213685  1.0000
  H   H65       1.0  0.5791247524280936  0.02887011640310688  0.28764086554061635  1.0000
  H   H66       1.0  0.420875247619667  0.528870115911527  0.21235913430708236  1.0000
  H   H67       1.0  0.42087524790280445  0.9711298839142413  0.7123591343783411  1.0000
  H   H68       1.0  0.5791247519094389  0.4711298831053132  0.7876408655984449  1.0000
  H   H69       1.0  0.39348545706675525  0.008647669470092696  0.2441793558121327  1.0000
  H   H70       1.0  0.6065145429810054  0.5086476689785128  0.25582064403556604  1.0000
  H   H71       1.0  0.6065145432641429  0.9913523308472554  0.7558206441068249  1.0000
  H   H72       1.0  0.3934854565481005  0.4913523313388354  0.7441793558699614  1.0000
  H   H73       1.0  0.33091804549780685  0.19118408491290984  0.021370869330744745  1.0000
  H   H74       1.0  0.6690819545499537  0.69118408442133  0.47862913051695405  1.0000
  H   H75       1.0  0.669081954031299  0.8088159154044382  0.9786291305747826  1.0000
  H   H76       1.0  0.3309180457809444  0.3088159145955102  0.5213708694020035  1.0000
  H   H77       1.0  0.3401106483882361  0.9689270769493411  0.9441765232462376  1.0000
  H   H78       1.0  0.6598893522257996  0.46892707614041296  0.5558234767439785  1.0000
  H   H79       1.0  0.659889351942662  0.03107292336800706  0.05582347667271979  1.0000
  H   H80       1.0  0.34011064810509856  0.531072922876427  0.4441765231749789  1.0000
  H   H81       1.0  0.30145420582821564  0.5605202749605  0.06783496422175878  1.0000
  H   H82       1.0  0.698545794219156  0.060520274151572045  0.4321650360513441  1.0000
  H   H83       1.0  0.6985457937008902  0.439479725356848  0.9321650356837687  1.0000
  H   H84       1.0  0.3014542061113532  0.9394797261657761  0.5678349642930175  1.0000
  H   H85       1.0  0.29268567126715533  0.7820636983994665  0.14487876195111413  1.0000
  H   H86       1.0  0.707314327978813  0.2820636975905385  0.3551212378831546  1.0000
  H   H87       1.0  0.7073143282619504  0.21793630191788155  0.8551212379544132  1.0000
  H   H88       1.0  0.2926856715502929  0.7179363014263016  0.6448787620223728  1.0000
  C   C1        1.0  0.9708130488880677  0.7741126629499603  0.03055001338135962  1.0000
  C   C2        1.0  0.029186951159303896  0.2741126634415402  0.4694499868917433  1.0000
  C   C3        1.0  0.02918695144283041  0.22588733736738784  0.9694499865375977  1.0000
  C   C4        1.0  0.970813048369413  0.7258873368758079  0.5305500134391883  1.0000
  C   C5        1.0  0.028546526795823063  0.8847603666791922  0.06920083877194966  1.0000
  C   C6        1.0  0.9714534732519374  0.38476036717077217  0.4307991610757491  1.0000
  C   C7        1.0  0.9714534735350749  0.1152396323376479  0.9307991611470077  1.0000
  C   C8        1.0  0.028546527078960608  0.615239633146576  0.5692008388432084  1.0000
  C   C9        1.0  0.9845185464065003  0.9326017619815321  0.11972638187511818  1.0000
  C   C10       1.0  0.01548145364126029  0.432601762473112  0.3802736179725806  1.0000
  C   C11       1.0  0.015481453924397832  0.0673982383358161  0.8802736180438393  1.0000
  C   C12       1.0  0.9845185458878456  0.5673982378442362  0.6197263819329468  1.0000
  C   C13       1.0  0.8809468692345171  0.8733252975894372  0.1339095726220805  1.0000
  C   C14       1.0  0.11905313081285453  0.3733252980810172  0.36609042765102245  1.0000
  C   C15       1.0  0.11905313109599207  0.12667470272791084  0.8660904277222812  1.0000
  C   C16       1.0  0.8809468695180437  0.6266747022363309  0.6339095722679351  1.0000
  C   C17       1.0  0.823442087261939  0.7632222036967984  0.09777086841579535  1.0000
  C   C18       1.0  0.17655791278582159  0.26322220288787024  0.4022291314319034  1.0000
  C   C19       1.0  0.1765579130689591  0.23677779662054982  0.902229131503162  1.0000
  C   C20       1.0  0.8234420875450766  0.7367777961289699  0.5977708684870541  1.0000
  C   C21       1.0  0.8669638430842183  0.7069280135466839  0.04467973366939195  1.0000
  C   C22       1.0  0.1330361569635422  0.20692801273775582  0.4553202661783068  1.0000
  C   C23       1.0  0.13303615644488748  0.29307198677066426  0.9553202662361354  1.0000
  C   C24       1.0  0.8669638433673559  0.7930719875795923  0.5446797337406506  1.0000
  C   C25       1.0  0.015595836390475305  0.7338169126426897  0.9779008712196984  1.0000
  C   C26       1.0  0.9844041642235603  0.23381691313426964  0.5220991287705179  1.0000
  C   C27       1.0  0.9844041639404227  0.26618308637415045  0.022099128699259188  1.0000
  C   C28       1.0  0.01559583610733776  0.7661830871830785  0.47790087114843954  1.0000
  C   C29       1.0  0.9985299893376268  0.594321570490745  0.8845890346110701  1.0000
  C   C30       1.0  0.001470010474616585  0.09432156968181686  0.6154109653657162  1.0000
  C   C31       1.0  0.0014700101914790422  0.4056784298266032  0.11541096529445738  1.0000
  C   C32       1.0  0.9985299898558926  0.9056784306355312  0.3845890349786455  1.0000
  C   C33       1.0  0.9314610747431431  0.4916910954675627  0.8493984200797715  1.0000
  C   C34       1.0  0.0685389258708927  0.9916910962764908  0.6506015799104446  1.0000
  C   C35       1.0  0.06853892558775515  0.5083089035492775  0.150601579839186  1.0000
  C   C36       1.0  0.9314610744600054  0.008308904040857362  0.34939842000851273  1.0000
  C   C37       1.0  0.964926005289607  0.44835640908495217  0.7954802875837833  1.0000
  C   C38       1.0  0.03507399452263649  0.9483564085933722  0.7045197123930027  1.0000
  C   C39       1.0  0.035073994239498946  0.5516435912323959  0.20451971232174404  1.0000
  C   C40       1.0  0.9649260058082616  0.05164359042346791  0.2954802875259547  1.0000
  C   C41       1.0  0.0632930906915946  0.5093100918354654  0.7776448110237434  1.0000
  C   C42       1.0  0.9367069091206488  0.009310091026537326  0.7223551889530425  1.0000
  C   C43       1.0  0.9367069096393036  0.49068990848188276  0.22235518889521402  1.0000
  C   C44       1.0  0.06329309040845706  0.9906899079903028  0.2776448109524847  1.0000
  C   C45       1.0  0.09592601549431909  0.6525683017464048  0.8632838173320054  1.0000
  C   C46       1.0  0.9040739843179243  0.15256830223798468  0.6367161826447808  1.0000
  C   C47       1.0  0.9040739840347868  0.3474316972704354  0.1367161825735221  1.0000
  C   C48       1.0  0.09592601521118152  0.8474316980793635  0.3632838172607466  1.0000
  C   C49       1.0  0.6728584023915739  0.7537442092835014  0.15763867022147332  1.0000
  C   C50       1.0  0.3271415976557977  0.2537442084745733  0.34236133005162955  1.0000
  C   C51       1.0  0.32714159793893527  0.24625579103384676  0.8423613301228883  1.0000
  C   C52       1.0  0.6728584026747113  0.7462557918427748  0.657638670292732  1.0000
  C   C53       1.0  0.4309781021964337  0.16849016296734073  0.17224335377880273  1.0000
  C   C54       1.0  0.5690218978513268  0.6684901637762688  0.327756646068896  1.0000
  C   C55       1.0  0.569021897332672  0.8315098360494994  0.8277566461267246  1.0000
  C   C56       1.0  0.43097810247957125  0.33150983654107935  0.6722433538500615  1.0000
  C   C57       1.0  0.5095729636200746  0.2623382423934388  0.14409709886758973  1.0000
  C   C58       1.0  0.490427036427297  0.7623382432023668  0.35590290140551323  1.0000
  C   C59       1.0  0.4904270367104346  0.7376617579239094  0.855902901476772  1.0000
  C   C60       1.0  0.5095729639036011  0.2376617571149813  0.6440970985134443  1.0000
  C   C61       1.0  0.6123280295666255  0.27394500585079395  0.1680466830178999  1.0000
  C   C62       1.0  0.3876719704807461  0.773945005359214  0.331953317255203  1.0000
  C   C63       1.0  0.3876719707638836  0.7260549944665542  0.8319533173264618  1.0000
  C   C64       1.0  0.6123280290479708  0.22605499495813414  0.6680466830757286  1.0000
  C   C65       1.0  0.6372404674010534  0.1911977961688283  0.2203947239802841  1.0000
  C   C66       1.0  0.36275953264670713  0.6911977969777563  0.2796052758674146  1.0000
  C   C67       1.0  0.36275953292984464  0.8088022028480119  0.7796052759386733  1.0000
  C   C68       1.0  0.6372404668823988  0.30880220333959174  0.7203947240381128  1.0000
  C   C69       1.0  0.5582006904471846  0.09419410169001277  0.24767261569335214  1.0000
  C   C70       1.0  0.4417993096005759  0.5941941024989409  0.2523273841543466  1.0000
  C   C71       1.0  0.4417993098837135  0.9058058986273353  0.7523273842256054  1.0000
  C   C72       1.0  0.5582006899285299  0.4058058978184073  0.7476726157511809  1.0000
  C   C73       1.0  0.4554832629536333  0.08267062016441379  0.22347383403778212  1.0000
  C   C74       1.0  0.5445167370937383  0.5826706196728338  0.2765261662353208  1.0000
  C   C75       1.0  0.5445167373768759  0.9173293801529343  0.7765261663065794  1.0000
  C   C76       1.0  0.45548326323715976  0.41732937934400627  0.7234738336836367  1.0000
  C   C77       1.0  0.3099469409058202  0.9989600764001698  0.08729049728033057  1.0000
  C   C78       1.0  0.690053058339759  0.49896007689174976  0.4127095029793422  1.0000
  C   C79       1.0  0.6900530586228966  0.0010399226166702808  0.912709503050601  1.0000
  C   C80       1.0  0.30994694118895777  0.5010399234255983  0.5872904973515892  1.0000
  C   C81       1.0  0.32552635070236846  0.05323977152695041  0.03126773225661872  1.0000
  C   C82       1.0  0.6744736493453922  0.5532397723358784  0.46873226759108  1.0000
  C   C83       1.0  0.6744736496285297  0.9467602274898897  0.9687322676623388  1.0000
  C   C84       1.0  0.3255263509855059  0.44676022798146964  0.5312677323278774  1.0000
  C   C85       1.0  0.3294310619325316  0.9299800392789214  0.9881921948478963  1.0000
  C   C86       1.0  0.6705689386815041  0.42998003977050125  0.5118078051423198  1.0000
  C   C87       1.0  0.6705689383983666  0.0700199610384268  0.011807805071061162  1.0000
  C   C88       1.0  0.329431061649394  0.5700199605468468  0.48819219477663756  1.0000
  C   C89       1.0  0.3173964037989582  0.7522113148011665  0.0008538835631708498  1.0000
  C   C90       1.0  0.6826035962488023  0.25221131529274643  0.4991461162845278  1.0000
  C   C91       1.0  0.6826035965319399  0.24778868551618163  0.9991461163557867  1.0000
  C   C92       1.0  0.3173964032803035  0.7477886850246017  0.5008538836209996  1.0000
  C   C93       1.0  0.30684438877773984  0.6985415784204776  0.05779039040049476  1.0000
  C   C94       1.0  0.6931556112700208  0.19854157761154947  0.44220960944720394  1.0000
  C   C95       1.0  0.6931556115531583  0.30145842189687055  0.9422096095184626  1.0000
  C   C96       1.0  0.30684438906087735  0.8014584227057987  0.5577903904717535  1.0000
  C   C97       1.0  0.30301101856877516  0.8219081165064427  0.1008423674119488  1.0000
  C   C98       1.0  0.6969889814789855  0.3219081156975146  0.3991576324357499  1.0000
  C   C99       1.0  0.6969889809603306  0.17809188381090546  0.8991576324935786  1.0000
  C   C100      1.0  0.3030110188519127  0.6780918846198335  0.6008423674832075  1.0000
  N   N1        1.0  0.9645489378423192  0.6374204357564351  0.9388572206667898  1.0000
  N   N2        1.0  0.035451061969924126  0.13742043624801503  0.5611427793099963  1.0000
  N   N3        1.0  0.035451061686786585  0.3625795632604051  0.061142779238737656  1.0000
  N   N4        1.0  0.964548938360974  0.8625795640693331  0.43885722060896104  1.0000
  N   N5        1.0  0.1264331438096315  0.611338933647469  0.8109280284276311  1.0000
  N   N6        1.0  0.8735668560026119  0.11133893283854097  0.689071971549155  1.0000
  N   N7        1.0  0.8735668565208777  0.3886610666698791  0.1890719719167305  1.0000
  N   N8        1.0  0.12643314352649396  0.8886610661782992  0.31092802835637245  1.0000
  O   O1        1.0  0.814585259613861  0.6016615986673577  0.011250061051158384  1.0000
  O   O2        1.0  0.18541474043389947  0.1016615978584297  0.4887499387965404  1.0000
  O   O3        1.0  0.185414740717037  0.39833840164999035  0.988749938867799  1.0000
  O   O4        1.0  0.8145852598969987  0.8983384011584105  0.5112500611224171  1.0000
  O   O5        1.0  0.7240086981460159  0.6985030976890567  0.10698385328056131  1.0000
  O   O6        1.0  0.27599130190174465  0.19850309818063658  0.39301614656713746  1.0000
  O   O7        1.0  0.2759913013830899  0.3014969013277835  0.893016146624966  1.0000
  O   O8        1.0  0.7240086984291534  0.8014969021367115  0.60698385335182  1.0000
  O   O9        1.0  0.735408319315464  0.20267747658474944  0.2454206334977355  1.0000
  O   O10       1.0  0.2645916807322966  0.7026774773936776  0.25457936634996325  1.0000
  O   O11       1.0  0.2645916810154341  0.7973225224320907  0.7545793664212219  1.0000
  O   O12       1.0  0.7354083195986016  0.2973225229236706  0.7454206335689944  1.0000
  O   O13       1.0  0.3161807090240071  0.6379185615353317  0.9572753203937217  1.0000
  O   O14       1.0  0.6838192915900286  0.1379185620269116  0.5427246795964945  1.0000
  O   O15       1.0  0.6838192913068911  0.36208143748150845  0.04272467952523576  1.0000
  O   O16       1.0  0.31618070874086956  0.8620814382904365  0.457275320322463  1.0000
  O   O17       1.0  0.22979035443550974  0.0892927146003006  0.18439890550664229  1.0000
  O   O18       1.0  0.7702096456118619  0.5892927154092287  0.3156010947664606  1.0000
  O   O19       1.0  0.7702096458949994  0.9107072857170476  0.8156010948377194  1.0000
  O   O20       1.0  0.229790353917244  0.4107072849081195  0.6843989051390668  1.0000
  O   O21       1.0  0.27672405044400405  0.32191838060721434  0.11468825614363867  1.0000
  O   O22       1.0  0.7232759496037566  0.8219183801156345  0.38531174370406  1.0000
  O   O23       1.0  0.7232759498868941  0.6780816197101338  0.8853117437753187  1.0000
  O   O24       1.0  0.2767240499253493  0.17808162020171375  0.6146882562014674  1.0000
  S   S1        1.0  0.3010073754650141  0.15536350750670527  0.14156410829232186  1.0000
  S   S2        1.0  0.6989926245823577  0.6553635083156334  0.3584358919807811  1.0000
  S   S3        1.0  0.6989926240640918  0.8446364915101348  0.8584358916132055  1.0000
  S   S4        1.0  0.3010073757481516  0.34463649200171476  0.6415641083635806  1.0000
