data_image0
_chemical_formula_structural       H12C32N4
_chemical_formula_sum              "H12 C32 N4"
_cell_length_a       6.809541534092412
_cell_length_b       6.8938588767645435
_cell_length_c       12.461305241450468
_cell_angle_alpha    94.45829347328473
_cell_angle_beta     99.12901966060528
_cell_angle_gamma    112.61565399394165

_space_group_name_H-M_alt    "P 1"
_space_group_IT_number       1

loop_
  _space_group_symop_operation_xyz
  'x, y, z'

loop_
  _atom_site_type_symbol
  _atom_site_label
  _atom_site_symmetry_multiplicity
  _atom_site_fract_x
  _atom_site_fract_y
  _atom_site_fract_z
  _atom_site_occupancy
  H   H1        1.0  0.8466110366437617  0.04501020982855073  0.0976684324977204  1.0000
  H   H2        1.0  0.15338896379443706  0.954989789653011  0.9023315680887842  1.0000
  H   H3        1.0  0.7500033607892361  0.7305715400492755  0.959995475323421  1.0000
  H   H4        1.0  0.24999663964896232  0.2694284594322861  0.04000452526308357  1.0000
  H   H5        1.0  0.7311672938216773  0.3858168168580321  0.019520994731862126  1.0000
  H   H6        1.0  0.2688327066482897  0.6141831826380639  0.9804790050556917  1.0000
  H   H7        1.0  0.8047666646398809  0.3601565852211357  0.21842887013987894  1.0000
  H   H8        1.0  0.19523333434621737  0.6398434142828646  0.7815711295054922  1.0000
  H   H9        1.0  0.4632252593855306  0.2025291292530806  0.3451242870557299  1.0000
  H   H10       1.0  0.5367747410844365  0.7974708702430156  0.6548757127318239  1.0000
  H   H11       1.0  0.42732214308328387  0.6150627178508489  0.4636413778172906  1.0000
  H   H12       1.0  0.5726778580173585  0.38493728322055604  0.5363586229024208  1.0000
  C   C1        1.0  0.8675982687324362  0.6861749867970779  0.27183123767050965  1.0000
  C   C2        1.0  0.13240173022189367  0.31382501269238794  0.7281687627738123  1.0000
  C   C3        1.0  0.8811393551973165  0.8856652964284059  0.2373973056364359  1.0000
  C   C4        1.0  0.11886064445122559  0.11433470466543763  0.762602694142142  1.0000
  C   C5        1.0  0.9380527667988252  0.05991363093303773  0.3203383221450564  1.0000
  C   C6        1.0  0.061947234333585524  0.9400863701529016  0.6796616777757042  1.0000
  C   C7        1.0  0.9888767780049116  0.17857416091914202  0.4083055882321548  1.0000
  C   C8        1.0  0.011123223127499336  0.8214258401667974  0.5916944116886058  1.0000
  C   C9        1.0  0.9072687334266937  0.6800349014749476  0.3856368069717946  1.0000
  C   C10       1.0  0.09273126701150486  0.319965098006614  0.61436319361471  1.0000
  C   C11       1.0  0.04648965413951372  0.27191019596325966  0.513669928628156  1.0000
  C   C12       1.0  0.9535103469928973  0.7280898051226798  0.4863300712926046  1.0000
  C   C13       1.0  0.8385502351698139  0.896292807392989  0.12458585289796344  1.0000
  C   C14       1.0  0.1614497638162843  0.10370719211101126  0.8754141467474077  1.0000
  C   C15       1.0  0.7850743341823787  0.7180046536454268  0.046916440752969885  1.0000
  C   C16       1.0  0.2149256654661634  0.2819953474484168  0.953083559025608  1.0000
  C   C17       1.0  0.7742972112530011  0.5256584134968566  0.08027732972453124  1.0000
  C   C18       1.0  0.22570278773309696  0.4743415860071436  0.91972266992084  1.0000
  C   C19       1.0  0.8148362365120213  0.5096202219892533  0.19164175090114194  1.0000
  C   C20       1.0  0.18516376247407687  0.49037977751474693  0.8083582487442291  1.0000
  C   C21       1.0  0.440056593964354  0.8953997462157229  0.39012228622166745  1.0000
  C   C22       1.0  0.5599434064738446  0.10460025326583865  0.6098777143648372  1.0000
  C   C23       1.0  0.3832493044478817  0.7920712774076764  0.28121468432661323  1.0000
  C   C24       1.0  0.6167506960220853  0.20792872208841964  0.7187853154609406  1.0000
  C   C25       1.0  0.37089566014633457  0.8976287693432646  0.18901073547818764  1.0000
  C   C26       1.0  0.6291043403236324  0.10237123015283142  0.8109892643093662  1.0000
  C   C27       1.0  0.3412771406639473  0.5745071334324346  0.2562702946231784  1.0000
  C   C28       1.0  0.6587228598060196  0.4254928660636613  0.7437297051643754  1.0000
  C   C29       1.0  0.4810532746173303  0.11643509099160411  0.41330877090352436  1.0000
  C   C30       1.0  0.5189467258526367  0.8835649085044919  0.5866912288840296  1.0000
  C   C31       1.0  0.46043837595601766  0.7832346758856004  0.48078127795324593  1.0000
  C   C32       1.0  0.5395616229983121  0.21676532360386544  0.5192187224910759  1.0000
  N   N1        1.0  0.3068149906725632  0.3944915871985489  0.2355052884406544  1.0000
  N   N2        1.0  0.6931850083135349  0.6055084123054514  0.7644947112047168  1.0000
  N   N3        1.0  0.3625306634930903  0.979483732833631  0.11064059952939803  1.0000
  N   N4        1.0  0.6374693369768767  0.02051626666246502  0.8893594002581559  1.0000
