data_image0
_chemical_formula_structural       H10C18N2Cl4I2
_chemical_formula_sum              "H10 C18 N2 Cl4 I2"
_cell_length_a       3.98193125039823
_cell_length_b       10.838987560472491
_cell_length_c       12.233197979673813
_cell_angle_alpha    110.46801500156546
_cell_angle_beta     91.60983023927353
_cell_angle_gamma    94.859787545875

_space_group_name_H-M_alt    "P 1"
_space_group_IT_number       1

loop_
  _space_group_symop_operation_xyz
  'x, y, z'

loop_
  _atom_site_type_symbol
  _atom_site_label
  _atom_site_symmetry_multiplicity
  _atom_site_fract_x
  _atom_site_fract_y
  _atom_site_fract_z
  _atom_site_occupancy
  H   H1        1.0  0.12506950758801408  0.4819198641101873  0.3051866461213525  1.0000
  H   H2        1.0  0.8749304929730009  0.5180801362628509  0.6948133538746489  1.0000
  H   H3        1.0  0.25391080785824266  0.24799370718816782  0.24933625718019556  1.0000
  H   H4        1.0  0.7460891899858985  0.7520062922594319  0.7506637428235542  1.0000
  H   H5        1.0  0.761108154161646  0.1758714429041482  0.9094867114372565  1.0000
  H   H6        1.0  0.23889184639936903  0.8241285574688902  0.09051328855874498  1.0000
  H   H7        1.0  0.6600689749829683  0.4107281610479518  0.9786917200765812  1.0000
  H   H8        1.0  0.33993102557804655  0.5892718393250865  0.021308279919420237  1.0000
  H   H9        1.0  0.27326099832402145  0.033555618589998545  0.10056569657775608  1.0000
  H   H10       1.0  0.7267390022369935  0.9664443817830397  0.8994343034182455  1.0000
  C   C1        1.0  0.5812078752670056  0.8818493449263215  0.41226006720124175  1.0000
  C   C2        1.0  0.4187921252940094  0.11815065544671687  0.5877399327947598  1.0000
  C   C3        1.0  0.45801755987417725  0.879009849531515  0.5180434111706496  1.0000
  C   C4        1.0  0.5419824406868377  0.12099015084152333  0.48195658882535203  1.0000
  C   C5        1.0  0.3785430363312627  0.9961484785169403  0.6046873773511744  1.0000
  C   C6        1.0  0.6214569640233968  0.0038515209303008383  0.3953126226451353  1.0000
  C   C7        1.0  0.04782606088305499  0.41045939233491086  0.21820858515522382  1.0000
  C   C8        1.0  0.95217393967796  0.5895406080381275  0.7817914148407777  1.0000
  C   C9        1.0  0.11914924611118488  0.2798142380680288  0.18678734868618316  1.0000
  C   C10       1.0  0.88085075444983  0.7201857623050093  0.8132126513098182  1.0000
  C   C11       1.0  0.012469248276613614  0.18921199988169565  0.07486612145874413  1.0000
  C   C12       1.0  0.9875307522844013  0.8107880004913426  0.9251338785372574  1.0000
  C   C13       1.0  0.8438180915647253  0.23845004898884162  0.9987824792238905  1.0000
  C   C14       1.0  0.15618190878993432  0.7615499504583998  0.0012175207724191895  1.0000
  C   C15       1.0  0.787430476563781  0.37132732066795315  0.03750881870217674  1.0000
  C   C16       1.0  0.21256952399723403  0.6286726797050851  0.9624911812938248  1.0000
  C   C17       1.0  0.07996781576269314  0.051584407670017235  0.04430061856760707  1.0000
  C   C18       1.0  0.9200321847983217  0.9484155927030209  0.9556993814283944  1.0000
  N   N1        1.0  0.8847468635838022  0.45683731929147225  0.14538032848248986  1.0000
  N   N2        1.0  0.11525313446669438  0.5431626810819246  0.8546196715209518  1.0000
  Cl  Cl1       1.0  0.40013102763912656  0.7318551195893118  0.5430698164007178  1.0000
  Cl  Cl2       1.0  0.5998689727155331  0.2681448798579294  0.45693018359559195  1.0000
  Cl  Cl3       1.0  0.23133028521133606  0.9892223770327326  0.7338128452996165  1.0000
  Cl  Cl4       1.0  0.7686697128391605  0.010777623340664278  0.2661871547038251  1.0000
  I   I1        1.0  0.7067788364804622  0.7059862272232371  0.28289871874432193  1.0000
  I   I2        1.0  0.29322116408055265  0.2940137731498011  0.7171012812516796  1.0000
