data_image0
_chemical_formula_structural       H32C56N4O4Cl12I4
_chemical_formula_sum              "H32 C56 N4 O4 Cl12 I4"
_cell_length_a       7.367350492409595
_cell_length_b       13.360871931388935
_cell_length_c       17.093865184712072
_cell_angle_alpha    66.97940060382561
_cell_angle_beta     80.98783154208205
_cell_angle_gamma    77.5705870041267

_space_group_name_H-M_alt    "P 1"
_space_group_IT_number       1

loop_
  _space_group_symop_operation_xyz
  'x, y, z'

loop_
  _atom_site_type_symbol
  _atom_site_label
  _atom_site_symmetry_multiplicity
  _atom_site_fract_x
  _atom_site_fract_y
  _atom_site_fract_z
  _atom_site_occupancy
  H   H1        1.0  0.8304959827066543  0.5828119475355106  0.8233340864987637  1.0000
  H   H2        1.0  0.16950401794070155  0.4171880521061253  0.176665913686476  1.0000
  H   H3        1.0  0.871449149740295  0.6409321186308021  0.7107099366902068  1.0000
  H   H4        1.0  0.12855085102352404  0.35906788131119005  0.28929006285734915  1.0000
  H   H5        1.0  0.5149286425478785  0.9958692855089466  0.8894529414875721  1.0000
  H   H6        1.0  0.4850713579369033  0.004130715201493651  0.11054705805554745  1.0000
  H   H7        1.0  0.6083321891598346  0.6060367790707273  0.9131282739144034  1.0000
  H   H8        1.0  0.39166781012624  0.39396322058226746  0.0868717262698627  1.0000
  H   H9        1.0  0.6135400172478939  0.011173883089451294  0.3848099234711852  1.0000
  H   H10       1.0  0.3864599833994619  0.9888261165521846  0.6151900767140546  1.0000
  H   H11       1.0  0.5670984662972475  0.14618628543481643  0.3061544471760918  1.0000
  H   H12       1.0  0.4329015343501084  0.8538137142068196  0.693845553009148  1.0000
  H   H13       1.0  0.06459626965900826  0.08066182860453278  0.012599830390908532  1.0000
  H   H14       1.0  0.9354037307093103  0.9193381718055514  0.9874001697898951  1.0000
  H   H15       1.0  0.7710667460500927  0.251565813070761  0.22296552052526322  1.0000
  H   H16       1.0  0.22893325431822584  0.7484341873393231  0.7770344796555403  1.0000
  H   H17       1.0  0.7400216431285431  0.4962697299509099  0.514207779626643  1.0000
  H   H18       1.0  0.2599783559949571  0.5037302707708892  0.48579221991550314  1.0000
  H   H19       1.0  0.9645510401999429  0.5643944147606955  0.5674899331498058  1.0000
  H   H20       1.0  0.03544895880709457  0.43560558566074736  0.43251006703002415  1.0000
  H   H21       1.0  0.9278451589666792  0.31812106206539836  0.8069703465089554  1.0000
  H   H22       1.0  0.07215484168067655  0.6818789375762376  0.19302965367628433  1.0000
  H   H23       1.0  0.70482025653858  0.2379265401782923  0.7636871870185465  1.0000
  H   H24       1.0  0.2951797441087756  0.7620734594633439  0.23631281316669314  1.0000
  H   H25       1.0  0.4052482347779594  0.25739714642597855  0.724597595462924  1.0000
  H   H26       1.0  0.5947517646245782  0.7426028535273722  0.2754024040836583  1.0000
  H   H27       1.0  0.19473639086462835  0.1854710482787593  0.6665168155900969  1.0000
  H   H28       1.0  0.8052636095036902  0.8145289521313249  0.3334831845907066  1.0000
  H   H29       1.0  0.4812959045746519  0.28238472203300446  0.4270738001152685  1.0000
  H   H30       1.0  0.5187040944323854  0.7176152783884385  0.5729262000645614  1.0000
  H   H31       1.0  0.7061938899245788  0.35559425102851694  0.47508468380267466  1.0000
  H   H32       1.0  0.2938061090824587  0.6444057493929259  0.5249153163771553  1.0000
  C   C1        1.0  0.4713265133636975  0.5722579985775655  0.7404892962531545  1.0000
  C   C2        1.0  0.5286734860388401  0.4277420013757854  0.25951070329342785  1.0000
  C   C3        1.0  0.6012471342202588  0.6058392937017082  0.7531165615107559  1.0000
  C   C4        1.0  0.3987528664270972  0.3941607059399278  0.24688343867448378  1.0000
  C   C5        1.0  0.7667497661707818  0.6400340171120259  0.764170399493754  1.0000
  C   C6        1.0  0.23325023419753668  0.3599659832980583  0.23582960068704956  1.0000
  C   C7        1.0  0.6512877928748182  0.7720527692496663  0.8313697120010404  1.0000
  C   C8        1.0  0.3487122065277193  0.2279472307036847  0.16863028754554188  1.0000
  C   C9        1.0  0.6242412248883161  0.8823465787506053  0.8258648423576053  1.0000
  C   C10       1.0  0.3757587758755027  0.11765342119138703  0.1741351571899505  1.0000
  C   C11       1.0  0.5375561421845962  0.9105472765443812  0.8943663341566096  1.0000
  C   C12       1.0  0.4624438568224411  0.08945272387706184  0.10563366602322036  1.0000
  C   C13       1.0  0.47903086105453585  0.8297802891395577  0.969710918116207  1.0000
  C   C14       1.0  0.5209691382315388  0.17021971051343715  0.0302890820680591  1.0000
  C   C15       1.0  0.5072706284152275  0.7199395491450835  0.9761128738119548  1.0000
  C   C16       1.0  0.4927293719530909  0.28006045126500057  0.023887126368848835  1.0000
  C   C17       1.0  0.5917622732619795  0.6916234393473124  0.9068772048717663  1.0000
  C   C18       1.0  0.40823772738537645  0.3083765602943234  0.0931227953134735  1.0000
  C   C19       1.0  0.9073997589202326  0.1416293259175785  0.4085344878675696  1.0000
  C   C20       1.0  0.09260024036584194  0.8583706737354163  0.5914655123166965  1.0000
  C   C21       1.0  0.8021011526939357  0.11457452971922244  0.374900675041895  1.0000
  C   C22       1.0  0.1978988477908461  0.8854254709912177  0.6250993245012246  1.0000
  C   C23       1.0  0.6793326023049366  0.07849195313165498  0.33650866446389366  1.0000
  C   C24       1.0  0.3206673968185638  0.9215080475901442  0.6634913350782524  1.0000
  C   C25       1.0  0.8433960999568919  0.09951733636790697  0.1992181445500035  1.0000
  C   C26       1.0  0.15660389932918273  0.9004826632850877  0.8007818556342626  1.0000
  C   C27       1.0  0.925227830053795  0.0535760112256078  0.1378283163309447  1.0000
  C   C28       1.0  0.07477217059356082  0.9464239884160283  0.862171683854295  1.0000
  C   C29       1.0  0.00025690196701435544  0.1178325888662446  0.05881274367365023  1.0000
  C   C30       1.0  0.9997430984013044  0.8821674115438395  0.9411872565071533  1.0000
  C   C31       1.0  0.9899878725654635  0.23080934690259258  0.03803855690483114  1.0000
  C   C32       1.0  0.01001212683707429  0.7691906530507582  0.9619614426417512  1.0000
  C   C33       1.0  0.9038055970952388  0.2778767142461053  0.09759607633370118  1.0000
  C   C34       1.0  0.0961944020282616  0.7221232864756938  0.9024039232084449  1.0000
  C   C35       1.0  0.8337341318103212  0.2124594471271176  0.177831104560392  1.0000
  C   C36       1.0  0.16626586759221645  0.7875405528262334  0.8221688949861904  1.0000
  C   C37       1.0  0.7806414114610049  0.4524145815576023  0.5791775065598574  1.0000
  C   C38       1.0  0.2193585891863509  0.5475854180840336  0.42082249362538227  1.0000
  C   C39       1.0  0.9062851514554754  0.49083545266672446  0.6088513156436886  1.0000
  C   C40       1.0  0.09371484891284308  0.5091645477433596  0.39114868453711493  1.0000
  C   C41       1.0  0.8849696621494703  0.35455584109536836  0.7420119543983887  1.0000
  C   C42       1.0  0.11503033697403008  0.6454441596264306  0.25798804514375734  1.0000
  C   C43       1.0  0.7578297269382163  0.3107224405919026  0.7178272731587532  1.0000
  C   C44       1.0  0.2421702737091396  0.6892775590497333  0.28217272702648655  1.0000
  C   C45       1.0  0.7045689268487452  0.35908241814447717  0.6341067321909561  1.0000
  C   C46       1.0  0.2954310739150738  0.6409175817975149  0.36589326735659977  1.0000
  C   C47       1.0  0.5744327105861554  0.31420912389444167  0.6043224754680512  1.0000
  C   C48       1.0  0.4255672888163824  0.6857908760589092  0.3956775240785311  1.0000
  C   C49       1.0  0.4284302470995693  0.2642290409642222  0.6583038262186  1.0000
  C   C50       1.0  0.5715697520239311  0.7357709597575769  0.3416961733235462  1.0000
  C   C51       1.0  0.3087621784287426  0.22503575359522865  0.6258231335047234  1.0000
  C   C52       1.0  0.6912378209737949  0.7749642463581223  0.37417686604185885  1.0000
  C   C53       1.0  0.46861790432670686  0.2782407561140961  0.4927049299227672  1.0000
  C   C54       1.0  0.5313820946803304  0.7217592443073471  0.5072950702570628  1.0000
  C   C55       1.0  0.5935377167106856  0.3202082255126002  0.5197632158998509  1.0000
  C   C56       1.0  0.4064622839366703  0.6797917741290359  0.4802367842853889  1.0000
  N   N1        1.0  0.9607343790135529  0.4422895411406576  0.6885585081087829  1.0000
  N   N2        1.0  0.03926562135476584  0.5577104592694265  0.3114414920720205  1.0000
  N   N3        1.0  0.3274736717324793  0.23209069521209266  0.5444038601729495  1.0000
  N   N4        1.0  0.6725263289148766  0.7679093044295433  0.4555961400122902  1.0000
  O   O1        1.0  0.7353932967182251  0.7519560943002291  0.7610443180328805  1.0000
  O   O2        1.0  0.2646067039291308  0.24804390534140672  0.2389556821523593  1.0000
  O   O3        1.0  0.7763404920235409  0.03034995859503649  0.2752321714694073  1.0000
  O   O4        1.0  0.22365950834477766  0.9696500418150475  0.7247678287113963  1.0000
  Cl  Cl1       1.0  0.6992709734097377  0.982540255681705  0.7337067599182009  1.0000
  Cl  Cl2       1.0  0.3007290258763371  0.017459743971289788  0.26629324026606527  1.0000
  Cl  Cl3       1.0  0.3695910641733997  0.8678066926860358  0.053136301083241716  1.0000
  Cl  Cl4       1.0  0.6304089351126748  0.13219330696695916  0.9468636991010243  1.0000
  Cl  Cl5       1.0  0.4436197374670625  0.6178991244747865  0.06926205328133478  1.0000
  Cl  Cl6       1.0  0.5563802619354752  0.3821008754785645  0.9307379462652475  1.0000
  Cl  Cl7       1.0  0.9268998976838125  0.9155069141278263  0.1604993160654817  1.0000
  Cl  Cl8       1.0  0.0731001014396879  0.08449308659397266  0.8395006834766644  1.0000
  Cl  Cl9       1.0  0.08362324346722819  0.3097550971819087  0.9396033382536683  1.0000
  Cl  Cl10      1.0  0.9163767571801278  0.6902449024597272  0.060396661931571505  1.0000
  Cl  Cl11      1.0  0.8791030212729417  0.4170765411751998  0.07385083218076816  1.0000
  Cl  Cl12      1.0  0.12089697773409543  0.5829234592462432  0.9261491679990618  1.0000
  I   I1        1.0  0.2581808907695044  0.5130915269794657  0.7218179258093307  1.0000
  I   I2        1.0  0.7418191098778514  0.4869084726621704  0.27818207437590897  1.0000
  I   I3        1.0  0.08508310060677798  0.17762139441731062  0.4689045913022215  1.0000
  I   I4        1.0  0.9149168984002591  0.8223786060041325  0.5310954088776084  1.0000
