data_image0
_chemical_formula_structural       H40C72N4F16Br8I12
_chemical_formula_sum              "H40 C72 N4 F16 Br8 I12"
_cell_length_a       12.321933286704041
_cell_length_b       24.768958364267487
_cell_length_c       7.246772119597177
_cell_angle_alpha    90.0
_cell_angle_beta     95.52246725543353
_cell_angle_gamma    90.0

_space_group_name_H-M_alt    "P 1"
_space_group_IT_number       1

loop_
  _space_group_symop_operation_xyz
  'x, y, z'

loop_
  _atom_site_type_symbol
  _atom_site_label
  _atom_site_symmetry_multiplicity
  _atom_site_fract_x
  _atom_site_fract_y
  _atom_site_fract_z
  _atom_site_occupancy
  H   H1        1.0  0.8183714597289162  0.7402236105515867  0.4375343511663878  1.0000
  H   H2        1.0  0.8183714601088292  0.2597763892761216  0.9375343518854858  1.0000
  H   H3        1.0  0.31837146025925805  0.24022361063773248  0.43753435166361104  1.0000
  H   H4        1.0  0.3183714598277459  0.7597763891899758  0.9375343523850863  1.0000
  H   H5        1.0  0.5022718981486843  0.6797604651913643  0.33974976619287695  1.0000
  H   H6        1.0  0.5022718976373152  0.32023953504007513  0.8397497655279949  1.0000
  H   H7        1.0  0.0022718978676009717  0.179760464873779  0.3397497666924774  1.0000
  H   H8        1.0  0.0022718981676569353  0.8202395349539292  0.8397497660252181  1.0000
  H   H9        1.0  0.9223729624586939  0.6297689794054169  0.45413837103149485  1.0000
  H   H10       1.0  0.9223729619473247  0.37023102042229133  0.9541383703666128  1.0000
  H   H11       1.0  0.42237296209775343  0.1297689794915628  0.45413837014473796  1.0000
  H   H12       1.0  0.42237296247766654  0.8702310203361454  0.954138370863836  1.0000
  H   H13       1.0  0.5461548368366825  0.8458828341455619  0.5133147652920539  1.0000
  H   H14       1.0  0.5461548372681947  0.15411716568214648  0.013314764570578532  1.0000
  H   H15       1.0  0.046154837287167266  0.3458828342317077  0.5133147644029197  1.0000
  H   H16       1.0  0.046154836987111314  0.6541171655960006  0.013314765070178999  1.0000
  H   H17       1.0  0.7480454123800845  0.8311955919672709  0.5144672204246521  1.0000
  H   H18       1.0  0.7480454120001716  0.16880440826416848  0.01446721970555401  1.0000
  H   H19       1.0  0.2480454120990012  0.33119559164968565  0.5144672209242526  1.0000
  H   H20       1.0  0.24804541171908814  0.6688044081780227  0.014467220205154473  1.0000
  H   H21       1.0  0.00028355863425641247  0.5891327206981458  0.7486054519057964  1.0000
  H   H22       1.0  0.0002835583342004554  0.41086727912956245  0.24860545257305577  1.0000
  H   H23       1.0  0.5002835581039146  0.08913272078429169  0.7486054514085733  1.0000
  H   H24       1.0  0.5002835586152838  0.9108672794471477  0.2486054520734553  1.0000
  H   H25       1.0  0.5999153948257694  0.6163385720742833  0.6353150203933641  1.0000
  H   H26       1.0  0.5999153953371387  0.38366142775342493  0.13531502105824636  1.0000
  H   H27       1.0  0.09991539535611128  0.11633857216042923  0.6353150208905874  1.0000
  H   H28       1.0  0.0999153950560553  0.883661427667279  0.1353150215578468  1.0000
  H   H29       1.0  0.6398190873496508  0.6300585470931057  0.2781216943065723  1.0000
  H   H30       1.0  0.6398190876497069  0.36994145273460255  0.778121693639313  1.0000
  H   H31       1.0  0.13981908780013555  0.13005854717925155  0.27812169341743814  1.0000
  H   H32       1.0  0.13981908736862342  0.8699414526484567  0.7781216941389135  1.0000
  H   H33       1.0  0.7687148928384239  0.6595754673950395  0.2508329680667672  1.0000
  H   H34       1.0  0.7687148932183371  0.3404245324326688  0.7508329687858654  1.0000
  H   H35       1.0  0.2687148925573405  0.15957546748118534  0.25083296856636766  1.0000
  H   H36       1.0  0.2687148928573964  0.8404245323465229  0.7508329678991083  1.0000
  H   H37       1.0  0.6778067138960961  0.5763715356958734  0.930013657880523  1.0000
  H   H38       1.0  0.6778067135960402  0.4236284641318349  0.43001365854778234  1.0000
  H   H39       1.0  0.17780671361501277  0.07637153578201927  0.9300136583801235  1.0000
  H   H40       1.0  0.17780671404652493  0.923628464045689  0.4300136576586482  1.0000
  C   C1        1.0  0.4181695184637986  0.5150940254478203  0.4410904249656805  1.0000
  C   C2        1.0  0.41816951884371173  0.4849059743798879  0.9410904256847785  1.0000
  C   C3        1.0  0.9181695188247391  0.015094025533966236  0.4410904258524374  1.0000
  C   C4        1.0  0.9181695183133698  0.984905974293742  0.9410904251875554  1.0000
  C   C5        1.0  0.35967929044681846  0.4670964135775096  0.44827670399844516  1.0000
  C   C6        1.0  0.35967929074687444  0.5329035862501987  0.9482767033311857  1.0000
  C   C7        1.0  0.859679290727902  0.9670964134913637  0.44827670349884463  1.0000
  C   C8        1.0  0.8596792910279578  0.032903586336344604  0.9482767028315854  1.0000
  C   C9        1.0  0.36599580167728624  0.5649043409183268  0.4463626924496508  1.0000
  C   C10       1.0  0.3659958020571993  0.43509565931311267  0.946362693168749  1.0000
  C   C11       1.0  0.8659958020382268  0.06490434100447257  0.44636269333640777  1.0000
  C   C12       1.0  0.8659958015268574  0.9350956592269668  0.9463626926715257  1.0000
  C   C13       1.0  0.24763368018835216  0.4711430891997108  0.45945004979871507  1.0000
  C   C14       1.0  0.24763367967698288  0.5288569110317286  0.9594500491338329  1.0000
  C   C15       1.0  0.7476336796580102  0.971143089113565  0.45945004930149175  1.0000
  C   C16       1.0  0.7476336800379234  0.02885691111787446  0.9594500500205898  1.0000
  C   C17       1.0  0.2541117089135057  0.56907611748157  0.45757445201705665  1.0000
  C   C18       1.0  0.25411170848199355  0.4309238827498694  0.9575744527385318  1.0000
  C   C19       1.0  0.754111708463021  0.06907611716398471  0.45757445290619075  1.0000
  C   C20       1.0  0.7541117087630769  0.9309238826637235  0.9575744522389313  1.0000
  C   C21       1.0  0.19558168324790734  0.5210590094341128  0.4626750453878315  1.0000
  C   C22       1.0  0.19558168362782039  0.4789409907973266  0.9626750461069296  1.0000
  C   C23       1.0  0.6955816836088479  0.021059009520258687  0.4626750462745884  1.0000
  C   C24       1.0  0.6955816830974785  0.9789409907111807  0.9626750456097063  1.0000
  C   C25       1.0  0.7556002838805379  0.6260800261334935  0.5238941238188485  1.0000
  C   C26       1.0  0.7556002843120501  0.3739199740979459  0.023894123097373206  1.0000
  C   C27       1.0  0.25560028433102266  0.12608002621963935  0.5238941229297144  1.0000
  C   C28       1.0  0.2556002840309667  0.8739199740118001  0.02389412359697367  1.0000
  C   C29       1.0  0.509251538833052  0.7639789135137345  0.42621426955180886  1.0000
  C   C30       1.0  0.5092515383216826  0.2360210863139738  0.9262142688869267  1.0000
  C   C31       1.0  0.009251538472111407  0.26397891359988035  0.4262142686650519  1.0000
  C   C32       1.0  0.009251538852024458  0.736021086227828  0.92621426938415  1.0000
  C   C33       1.0  0.7314107019827791  0.7485773817097028  0.4363324089907992  1.0000
  C   C34       1.0  0.7314107022828351  0.25142261811800537  0.9363324083235399  1.0000
  C   C35       1.0  0.23141070243326392  0.24857738179584873  0.4363324081016651  1.0000
  C   C36       1.0  0.23141070200175173  0.7514226180318595  0.9363324088231404  1.0000
  C   C37       1.0  0.55271253221771  0.7143937253948912  0.3805075605604688  1.0000
  C   C38       1.0  0.5527125317063406  0.2856062748365482  0.8805075598955867  1.0000
  C   C39       1.0  0.052712531856769496  0.21439372507730592  0.3805075596737119  1.0000
  C   C40       1.0  0.05271253223668255  0.7856062747504023  0.88050756039281  1.0000
  C   C41       1.0  0.8680378525832397  0.6179418320667297  0.5573142537541547  1.0000
  C   C42       1.0  0.8680378530147519  0.38205816776097856  0.05731425303267942  1.0000
  C   C43       1.0  0.3680378530337245  0.1179418321528756  0.5573142528650205  1.0000
  C   C44       1.0  0.3680378527336685  0.8820581676748326  0.05731425353227988  1.0000
  C   C45       1.0  0.8434738481978711  0.5812423884877311  0.8573316216332653  1.0000
  C   C46       1.0  0.8434738486293835  0.4187576113399772  0.35733162091179005  1.0000
  C   C47       1.0  0.343473848728213  0.081242388573877  0.8573316221304886  1.0000
  C   C48       1.0  0.34347384834829997  0.9187576112538313  0.3573316214113905  1.0000
  C   C49       1.0  0.5786986696647932  0.8069746747539951  0.47529554370331967  1.0000
  C   C50       1.0  0.5786986700447063  0.19302532507371323  0.9752955444224177  1.0000
  C   C51       1.0  0.07869867019513516  0.3069746748401409  0.47529554420054293  1.0000
  C   C52       1.0  0.07869866968376589  0.6930253253912985  0.9752955435356608  1.0000
  C   C53       1.0  0.6908433333002012  0.7986408172310324  0.47820993533050515  1.0000
  C   C54       1.0  0.6908433327888318  0.20135918300040703  0.9782099346656231  1.0000
  C   C55       1.0  0.19084333293926067  0.29864081691344707  0.4782099344437482  1.0000
  C   C56       1.0  0.19084333331917377  0.7013591829142611  0.9782099351628464  1.0000
  C   C57       1.0  0.9126908256392505  0.5951262807751075  0.7237726338125513  1.0000
  C   C58       1.0  0.9126908253391947  0.4048737190526008  0.2237726344798106  1.0000
  C   C59       1.0  0.41269082535816715  0.09512628086125337  0.7237726343121518  1.0000
  C   C60       1.0  0.41269082578967925  0.9048737189664549  0.22377263359067648  1.0000
  C   C61       1.0  0.6876784028340375  0.6102798998526654  0.6582078481249667  1.0000
  C   C62       1.0  0.6876784025339815  0.3897200999750429  0.15820784879222596  1.0000
  C   C63       1.0  0.18767840255295407  0.11027989993881124  0.6582078486245672  1.0000
  C   C64       1.0  0.187678402173041  0.889720099888897  0.15820784790546902  1.0000
  C   C65       1.0  0.7073489540489024  0.653292443389294  0.34891858648413043  1.0000
  C   C66       1.0  0.7073489544288154  0.34670755643841417  0.8489185872032287  1.0000
  C   C67       1.0  0.20734895457924418  0.15329244347543997  0.34891858698135375  1.0000
  C   C68       1.0  0.20734895406787493  0.8467075563522682  0.8489185863164717  1.0000
  C   C69       1.0  0.7309699925321973  0.5878473739535718  0.8251264203577485  1.0000
  C   C70       1.0  0.7309699922321414  0.4121526258741364  0.32512642102500783  1.0000
  C   C71       1.0  0.23096999225111398  0.0878473740397177  0.825126420857349  1.0000
  C   C72       1.0  0.23096999268262616  0.9121526257879905  0.3251264201358737  1.0000
  N   N1        1.0  0.6618536413816136  0.7073696403509683  0.39021288327946513  1.0000
  N   N2        1.0  0.6618536409501014  0.29263035988047115  0.8902128840009405  1.0000
  N   N3        1.0  0.16185364110053022  0.207369640033383  0.3902128837790656  1.0000
  N   N4        1.0  0.16185364148044326  0.7926303597943253  0.8902128844981637  1.0000
  F   F1        1.0  0.42737390260331015  0.6103378449619788  0.44061655273025635  1.0000
  F   F2        1.0  0.4273739020919409  0.38966215486572936  0.9406165520653742  1.0000
  F   F3        1.0  0.9273739020729683  0.11033784504812477  0.44061655223303314  1.0000
  F   F4        1.0  0.9273739024528814  0.8896621551833146  0.9406165529521313  1.0000
  F   F5        1.0  0.18602382189604863  0.4258185974108451  0.4671321673375466  1.0000
  F   F6        1.0  0.18602382227596168  0.5741814028205944  0.9671321680566446  1.0000
  F   F7        1.0  0.6860238222569891  0.9258185973246992  0.4671321682243035  1.0000
  F   F8        1.0  0.686023822557045  0.07418140250300909  0.9671321675570441  1.0000
  F   F9        1.0  0.5272541776215894  0.5142842760144758  0.4279923544574425  1.0000
  F   F10       1.0  0.5272541779216454  0.4857157242169636  0.9279923537901832  1.0000
  F   F11       1.0  0.02725417807207415  0.014284275696890551  0.4279923535683084  1.0000
  F   F12       1.0  0.02725417764056198  0.9857157241308178  0.9279923542897837  1.0000
  F   F13       1.0  0.08644515626897328  0.5223287192675861  0.4718887335118438  1.0000
  F   F14       1.0  0.08644515583746112  0.47767128096385336  0.971888734233319  1.0000
  F   F15       1.0  0.5864451558184886  0.02232871935373194  0.4718887344009779  1.0000
  F   F16       1.0  0.5864451561185444  0.9776712808777075  0.9718887337337188  1.0000
  Br  Br1       1.0  0.3561998912275205  0.7708104963163488  0.4210638006354163  1.0000
  Br  Br2       1.0  0.35619989071615116  0.22918950351135947  0.9210637999705342  1.0000
  Br  Br3       1.0  0.8561998915086039  0.27081049640249466  0.42106380013581585  1.0000
  Br  Br4       1.0  0.8561998910770917  0.7291895034252136  0.9210638008572911  1.0000
  Br  Br5       1.0  0.9014510508347341  0.5555552436896735  0.09418195305045024  1.0000
  Br  Br6       1.0  0.9014510512146471  0.44444475613803475  0.5941819537695483  1.0000
  Br  Br7       1.0  0.40145105136507586  0.05555524377581935  0.0941819535476735  1.0000
  Br  Br8       1.0  0.40145105085370664  0.9444447560518889  0.5941819528827914  1.0000
  I   I1        1.0  0.4377396988930998  0.39052717307460605  0.4395917005656328  1.0000
  I   I2        1.0  0.43773969846158767  0.6094728271568334  0.9395917012871081  1.0000
  I   I3        1.0  0.9377396984426151  0.8905271729884602  0.4395917014547669  1.0000
  I   I4        1.0  0.937739698742671  0.10947282683924808  0.9395917007875075  1.0000
  I   I5        1.0  0.1758156369719931  0.6448577604717681  0.4634284808532239  1.0000
  I   I6        1.0  0.1758156364606238  0.3551422397596713  0.9634284801883417  1.0000
  I   I7        1.0  0.6758156364416512  0.14485776055791397  0.4634284803560006  1.0000
  I   I8        1.0  0.6758156367417072  0.8551422396735255  0.9634284796887412  1.0000
  I   I9        1.0  0.5524381863148446  0.7314791342270407  0.9188935306125192  1.0000
  I   I10       1.0  0.5524381868262139  0.26852086560066757  0.41889353127740137  1.0000
  I   I11       1.0  0.052438186845186516  0.23147913431318656  0.9188935311097425  1.0000
  I   I12       1.0  0.05243818654513056  0.7685208655145217  0.4188935317770019  1.0000
