data_image0
_chemical_formula_structural       H40C72N4F16Br4I16
_chemical_formula_sum              "H40 C72 N4 F16 Br4 I16"
_cell_length_a       7.467870819827005
_cell_length_b       21.475258122108926
_cell_length_c       14.085938859703374
_cell_angle_alpha    90.0
_cell_angle_beta     99.12448342677389
_cell_angle_gamma    90.0

_space_group_name_H-M_alt    "P 1"
_space_group_IT_number       1

loop_
  _space_group_symop_operation_xyz
  'x, y, z'

loop_
  _atom_site_type_symbol
  _atom_site_label
  _atom_site_symmetry_multiplicity
  _atom_site_fract_x
  _atom_site_fract_y
  _atom_site_fract_z
  _atom_site_occupancy
  H   H1        1.0  0.2444727476138691  0.5079429345144832  0.14632900084562803  1.0000
  H   H2        1.0  0.7555272531102345  0.007942934563584605  0.3536709988342141  1.0000
  H   H3        1.0  0.7555272524542263  0.49205706585296627  0.8536709990889383  1.0000
  H   H4        1.0  0.24447274695786098  0.9920570658038649  0.6463290011003523  1.0000
  H   H5        1.0  0.39498687952419914  0.5523971936703796  0.018887777048003998  1.0000
  H   H6        1.0  0.6050131211999045  0.05239719325382889  0.48111222263183817  1.0000
  H   H7        1.0  0.6050131205438962  0.44760280669706975  0.9811122228865623  1.0000
  H   H8        1.0  0.39498687886819095  0.9476028066479684  0.5188877773027283  1.0000
  H   H9        1.0  0.7245025608047884  0.5857372800120142  0.05916417563901805  1.0000
  H   H10       1.0  0.2754974385811333  0.08573727959546343  0.44083582404375493  1.0000
  H   H11       1.0  0.2754974379251251  0.41426272035543527  0.9408358242984792  1.0000
  H   H12       1.0  0.724502561486962  0.9142627203063339  0.5591641758908114  1.0000
  H   H13       1.0  0.7427967402008048  0.5389646612947608  0.3469404844956368  1.0000
  H   H14       1.0  0.25720325940564454  0.03896466134386218  0.15305951590615655  1.0000
  H   H15       1.0  0.25720325986729065  0.4610353386070365  0.6530595154389295  1.0000
  H   H16       1.0  0.7427967408829785  0.9610353385579352  0.8469404847474301  1.0000
  H   H17       1.0  0.06646531520532578  0.6219572102022464  0.4053621997768636  1.0000
  H   H18       1.0  0.9335346844011235  0.12195721025134766  0.09463780062492975  1.0000
  H   H19       1.0  0.9335346848627697  0.37804278969955096  0.5946378001577027  1.0000
  H   H20       1.0  0.0664653156669719  0.8780427901161019  0.9053621993096367  1.0000
  H   H21       1.0  0.07382619426467346  0.7275250202424902  0.47627182003574886  1.0000
  H   H22       1.0  0.9261738051212481  0.22752502029159158  0.023728179647024162  1.0000
  H   H23       1.0  0.9261738058034219  0.2724749801249593  0.5237281798988175  1.0000
  H   H24       1.0  0.07382619494684727  0.7724749800758579  0.9762718202875422  1.0000
  H   H25       1.0  0.981301097192779  0.5842995431604039  0.15663757961610053  1.0000
  H   H26       1.0  0.018698902193142672  0.08429954320950524  0.34336242006667245  1.0000
  H   H27       1.0  0.018698901537134514  0.4157004567413934  0.8433624203213967  1.0000
  H   H28       1.0  0.9813010978749528  0.9157004566922922  0.6566375798678938  1.0000
  H   H29       1.0  0.004689876092768648  0.554043950128389  0.2756612761991908  1.0000
  H   H30       1.0  0.995310124631335  0.05404395017749036  0.22433872348065131  1.0000
  H   H31       1.0  0.9953101239753268  0.4459560497734083  0.7243387237353757  1.0000
  H   H32       1.0  0.0046898754367604755  0.945956049724307  0.775661276453915  1.0000
  H   H33       1.0  0.792739033048128  0.6946737289570228  0.1352002303931966  1.0000
  H   H34       1.0  0.2072609676759755  0.19467372900612415  0.36479976928664554  1.0000
  H   H35       1.0  0.2072609670199673  0.3053262709447745  0.8647997695413698  1.0000
  H   H36       1.0  0.79273903239212  0.8053262708956732  0.6352002306479209  1.0000
  H   H37       1.0  0.7953411876610194  0.7997622385883276  0.2060963447482297  1.0000
  H   H38       1.0  0.20465881194543004  0.29976223863742896  0.29390365565356363  1.0000
  H   H39       1.0  0.2046588126276038  0.20023776131346976  0.7939036559053569  1.0000
  H   H40       1.0  0.7953411881226654  0.7002377612643684  0.7060963442810028  1.0000
  C   C1        1.0  0.38655985939808024  0.8394098370087366  0.3331822075140286  1.0000
  C   C2        1.0  0.613440141546551  0.33940983705783784  0.16681779288483387  1.0000
  C   C3        1.0  0.6134401406700152  0.16059016335871296  0.6668177924205377  1.0000
  C   C4        1.0  0.3865598587420721  0.6605901633096116  0.8331822077687528  1.0000
  C   C5        1.0  0.3093694851837434  0.8221875341196628  0.24012491465430677  1.0000
  C   C6        1.0  0.6906305142021782  0.322187533703112  0.25987508502846624  1.0000
  C   C7        1.0  0.6906305148843519  0.17781246624778665  0.7598750852802596  1.0000
  C   C8        1.0  0.30936948586591717  0.6778124661986853  0.7401249149061  1.0000
  C   C9        1.0  0.46124569624588047  0.7953620241898466  0.4008148748391535  1.0000
  C   C10       1.0  0.5387543031400412  0.2953620242389479  0.0991851248436195  1.0000
  C   C11       1.0  0.538754303822215  0.20463797571195075  0.5991851250954129  1.0000
  C   C12       1.0  0.4612456969280542  0.7046379761285015  0.9008148750909468  1.0000
  C   C13       1.0  0.3944299312421133  0.7153627068251207  0.28294901539373396  1.0000
  C   C14       1.0  0.6055700683643362  0.21536270640856986  0.21705098500805942  1.0000
  C   C15       1.0  0.6055700690465099  0.28463729354232886  0.7170509852598528  1.0000
  C   C16       1.0  0.3944299317037594  0.7846372934932275  0.782949014926507  1.0000
  C   C17       1.0  0.3164655575949016  0.7592952474556195  0.2161545759630146  1.0000
  C   C18       1.0  0.6835344417910201  0.2592952475047208  0.28384542371975846  1.0000
  C   C19       1.0  0.6835344424731938  0.24070475244617787  0.7838454239715518  1.0000
  C   C20       1.0  0.3164655582770754  0.7407047523970766  0.7161545762148079  1.0000
  C   C21       1.0  0.466789950564407  0.7324064176815309  0.3768356422451102  1.0000
  C   C22       1.0  0.5332100488215147  0.23240641773063223  0.12316435743766282  1.0000
  C   C23       1.0  0.5332100481655065  0.2675935826859186  0.6231643576923871  1.0000
  C   C24       1.0  0.4667899512465808  0.7675935826368173  0.8768356424969036  1.0000
  C   C25       1.0  0.47998419340348947  0.5198030643695831  0.2575995970753484  1.0000
  C   C26       1.0  0.5200158073206141  0.01980306441868447  0.24240040260449372  1.0000
  C   C27       1.0  0.520015806664606  0.48019693553221426  0.7424004028592179  1.0000
  C   C28       1.0  0.4799841927474813  0.9801969354831128  0.7575995973300726  1.0000
  C   C29       1.0  0.3848636684540324  0.5234193072830989  0.16415352094614669  1.0000
  C   C30       1.0  0.6151363309318892  0.023419307332200313  0.3358464787366263  1.0000
  C   C31       1.0  0.615136331614063  0.4765806926186984  0.8358464789884197  1.0000
  C   C32       1.0  0.3848636691362061  0.976580692569597  0.66415352119794  1.0000
  C   C33       1.0  0.469421494192164  0.5479585974282294  0.09145860845126833  1.0000
  C   C34       1.0  0.5305785067524673  0.04795859701167861  0.40854139194759415  1.0000
  C   C35       1.0  0.5305785058759315  0.45204140293922007  0.9085413914832979  1.0000
  C   C36       1.0  0.46942149331562816  0.9520414028901187  0.5914586079869723  1.0000
  C   C37       1.0  0.6483224909870929  0.5669792246857651  0.11228046207332917  1.0000
  C   C38       1.0  0.35167750861935637  0.06697922473486646  0.3877195383284642  1.0000
  C   C39       1.0  0.3516775090810025  0.4330207756816844  0.8877195378612373  1.0000
  C   C40       1.0  0.6483224914487391  0.933020775632583  0.6122804616061023  1.0000
  C   C41       1.0  0.9336482674026941  0.7702367154772818  0.34583382302578924  1.0000
  C   C42       1.0  0.0663517333214095  0.2702367155263832  0.15416617665405288  1.0000
  C   C43       1.0  0.0663517326654013  0.2297632844245155  0.6541661769087771  1.0000
  C   C44       1.0  0.9336482667466859  0.7297632843754142  0.8458338232805135  1.0000
  C   C45       1.0  0.6589018899689388  0.5396731440479594  0.276147641163872  1.0000
  C   C46       1.0  0.34109811097569254  0.03967314409706067  0.22385235923499042  1.0000
  C   C47       1.0  0.3410981103196843  0.46032685585383804  0.7238523594897147  1.0000
  C   C48       1.0  0.658901889092403  0.9603268558047366  0.776147640699576  1.0000
  C   C49       1.0  0.9303034201981168  0.6511323496318846  0.26590714031730067  1.0000
  C   C50       1.0  0.06969658074651447  0.1511323492153338  0.23409286008156174  1.0000
  C   C51       1.0  0.0696965800905063  0.34886765073556486  0.734092860336286  1.0000
  C   C52       1.0  0.930303419321581  0.8488676506864636  0.7659071398530047  1.0000
  C   C53       1.0  0.00844814434488005  0.661131939335485  0.36155011348266586  1.0000
  C   C54       1.0  0.9915518550410416  0.16113193938458628  0.13844988620010712  1.0000
  C   C55       1.0  0.9915518557232154  0.33886806056631236  0.6384498864519006  1.0000
  C   C56       1.0  0.00844814502705382  0.838868060517211  0.8615501137344592  1.0000
  C   C57       1.0  0.011452191995394633  0.7206027197441807  0.4017418665295663  1.0000
  C   C58       1.0  0.988547807390527  0.22060271979328205  0.09825813315320678  1.0000
  C   C59       1.0  0.9885478080727007  0.27939728015761667  0.5982581334050001  1.0000
  C   C60       1.0  0.011452192677568435  0.7793972801085154  0.9017418667813597  1.0000
  C   C61       1.0  0.9272509129539147  0.5863929051933249  0.2246493571290731  1.0000
  C   C62       1.0  0.0727490879907166  0.08639290524242618  0.2753506432697893  1.0000
  C   C63       1.0  0.07274908711418074  0.41360709470847246  0.7753506428054933  1.0000
  C   C64       1.0  0.927250912077379  0.9136070946593712  0.7246493566647771  1.0000
  C   C65       1.0  0.8534986794140581  0.7014369952783934  0.21024866029461123  1.0000
  C   C66       1.0  0.1465013201923912  0.2014369953274948  0.2897513401071821  1.0000
  C   C67       1.0  0.14650132065403731  0.2985630050890561  0.7897513396399553  1.0000
  C   C68       1.0  0.8534986798757043  0.7985630050399547  0.7102486598273843  1.0000
  C   C69       1.0  0.8544142119782663  0.7608860087775907  0.2499922941312273  1.0000
  C   C70       1.0  0.14558578874583736  0.2608860083610399  0.2500077055486148  1.0000
  C   C71       1.0  0.14558578808982922  0.23911399158985877  0.7500077058033391  1.0000
  C   C72       1.0  0.854414211322258  0.7391139915407574  0.7499922943859515  1.0000
  N   N1        1.0  0.7385773684901331  0.5622572977397228  0.20317357229270702  1.0000
  N   N2        1.0  0.2614226308957885  0.062257297323172  0.29682642739006604  1.0000
  N   N3        1.0  0.26142263157796225  0.43774270262772663  0.7968264276418593  1.0000
  N   N4        1.0  0.7385773691723069  0.9377427025786254  0.7031735725445003  1.0000
  F   F1        1.0  0.3883091119363797  0.9000132794726072  0.36039534212366614  1.0000
  F   F2        1.0  0.6116908887877239  0.40001327952170856  0.139604657556176  1.0000
  F   F3        1.0  0.6116908881317158  0.09998672042919014  0.6396046578109003  1.0000
  F   F4        1.0  0.38830911128037154  0.5999867208457409  0.8603953423783905  1.0000
  F   F5        1.0  0.5263245663539883  0.8146003829397542  0.4913133679377114  1.0000
  F   F6        1.0  0.47367543303193343  0.31460038298885556  0.008686631745061619  1.0000
  F   F7        1.0  0.47367543371410725  0.18539961742769523  0.508686631996855  1.0000
  F   F8        1.0  0.526324567036162  0.6853996173785939  0.9913133681895049  1.0000
  F   F9        1.0  0.24466825572172954  0.7391453667166071  0.12710974026530958  1.0000
  F   F10       1.0  0.7553317436641922  0.2391453667657085  0.3728902594174634  1.0000
  F   F11       1.0  0.7553317443463659  0.26085463318519014  0.8728902596692567  1.0000
  F   F12       1.0  0.24466825640390333  0.7608546336017409  0.6271097405171029  1.0000
  F   F13       1.0  0.3962218326216684  0.6550520119484619  0.25515515778775955  1.0000
  F   F14       1.0  0.6037781683229629  0.1550520119975632  0.24484484261110293  1.0000
  F   F15       1.0  0.6037781676669547  0.3449479879533355  0.7448448428658272  1.0000
  F   F16       1.0  0.39622183174513254  0.8449479883698863  0.7551551573234635  1.0000
  Br  Br1       1.0  6.821737865499383e-10  0.9999999999017973  0.5000000002517933  1.0000
  Br  Br2       1.0  0.0  0.49999999995089867  0.0  1.0000
  Br  Br3       1.0  0.0  0.9999999999017973  0.0  1.0000
  Br  Br4       1.0  6.821737865499383e-10  0.49999999995089867  0.5000000002517933  1.0000
  I   I1        1.0  0.17558750451405578  0.8879639598076854  0.1428560690709118  1.0000
  I   I2        1.0  0.8244124962100479  0.3879639598567867  0.3571439306089303  1.0000
  I   I3        1.0  0.8244124955540396  0.11203604009411199  0.8571439308636546  1.0000
  I   I4        1.0  0.1755875038580476  0.6120360400450107  0.6428560693256361  1.0000
  I   I5        1.0  0.5697698709826698  0.6655422625763727  0.47827016625933555  1.0000
  I   I6        1.0  0.4302301297414338  0.165542262625474  0.02172983342050656  1.0000
  I   I7        1.0  0.4302301290854256  0.33445773732542466  0.5217298336752307  1.0000
  I   I8        1.0  0.5697698703266616  0.8344577377419755  0.9782701665140597  1.0000
  I   I9        1.0  0.94386188317718  0.8611922485327412  0.40541626514768936  1.0000
  I   I10       1.0  0.056138116208741706  0.3611922485818425  0.09458373453508367  1.0000
  I   I11       1.0  0.056138116890915496  0.13880775136905618  0.594583734786877  1.0000
  I   I12       1.0  0.9438618838593537  0.6388077513199548  0.9054162653994827  1.0000
  I   I13       1.0  0.3381558832352917  0.4925444574335696  0.3679924233812583  1.0000
  I   I14       1.0  0.6618441174888119  0.9925444573844683  0.1320075762985838  1.0000
  I   I15       1.0  0.6618441168328038  0.5074555424682278  0.6320075765533081  1.0000
  I   I16       1.0  0.3381558825792835  0.007455542517329091  0.8679924236359825  1.0000
