data_image0
_chemical_formula_structural       H40C72N4F16Br8I12
_chemical_formula_sum              "H40 C72 N4 F16 Br8 I12"
_cell_length_a       13.244803912335724
_cell_length_b       13.728816114664264
_cell_length_c       13.781654509718473
_cell_angle_alpha    90.0
_cell_angle_beta     116.6652696062428
_cell_angle_gamma    90.0

_space_group_name_H-M_alt    "P 1"
_space_group_IT_number       1

loop_
  _space_group_symop_operation_xyz
  'x, y, z'

loop_
  _atom_site_type_symbol
  _atom_site_label
  _atom_site_symmetry_multiplicity
  _atom_site_fract_x
  _atom_site_fract_y
  _atom_site_fract_z
  _atom_site_occupancy
  H   H1        1.0  0.10545664783793197  0.2726327171067607  0.36621537790720293  1.0000
  H   H2        1.0  0.8945433522713834  0.7726327173010868  0.1337846221987095  1.0000
  H   H3        1.0  0.8945433522715702  0.7273672825534967  0.6337846220113779  1.0000
  H   H4        1.0  0.10545664783811874  0.22736728308756543  0.8662153777198713  1.0000
  H   H5        1.0  0.8472164101185764  0.2813997891539591  0.5350363926267174  1.0000
  H   H6        1.0  0.15278359037172426  0.7813997886198903  0.9649636079164896  1.0000
  H   H7        1.0  0.15278359037153744  0.7186002112346932  0.4649636081038212  1.0000
  H   H8        1.0  0.8472164097377779  0.21860021104036703  0.03503639200209124  1.0000
  H   H9        1.0  0.10384792879196798  0.13074059227020932  0.4798149675379473  1.0000
  H   H10       1.0  0.8961520713173474  0.6307405917361406  0.020185032567965173  1.0000
  H   H11       1.0  0.8961520713175343  0.869259408118443  0.5201850323806336  1.0000
  H   H12       1.0  0.1038479287921548  0.3692594079241168  0.9798149673506157  1.0000
  H   H13       1.0  0.8747086681764354  0.49796354491905026  0.404326519910563  1.0000
  H   H14       1.0  0.12529133193287997  0.9979635451133765  0.09567348019534941  1.0000
  H   H15       1.0  0.12529133117878516  0.502036455469602  0.5956734800095812  1.0000
  H   H16       1.0  0.8747086681766222  0.00203645527527584  0.9043265197232315  1.0000
  H   H17       1.0  0.8353615286740111  0.44940973048722943  0.5024109265966303  1.0000
  H   H18       1.0  0.16463847106200802  0.9494097306815555  0.9975890739481402  1.0000
  H   H19       1.0  0.1646384706812094  0.5505902691730279  0.4975890733235139  1.0000
  H   H20       1.0  0.8353615282932125  0.05059026970709666  0.00241092597200408  1.0000
  H   H21       1.0  0.6417033103736837  0.4173390802343131  0.4454235012956083  1.0000
  H   H22       1.0  0.35829668973563167  0.9173390804286392  0.054576498810304144  1.0000
  H   H23       1.0  0.3582966897358185  0.5826609194259442  0.5545764986229725  1.0000
  H   H24       1.0  0.6417033107544823  0.08266091923161813  0.9454235019202346  1.0000
  H   H25       1.0  0.44416656227674906  0.4104825997327311  0.2994232558602029  1.0000
  H   H26       1.0  0.5558334374519545  0.9104825999270573  0.20057674343375165  1.0000
  H   H27       1.0  0.555833437832753  0.5895173999275262  0.7005767440583779  1.0000
  H   H28       1.0  0.4441665626575478  0.08951740046159502  0.7994232564848293  1.0000
  H   H29       1.0  0.7651411760249699  0.4214834179197182  0.2041756474815725  1.0000
  H   H30       1.0  0.23485882408434552  0.9214834173856494  0.2958243526243399  1.0000
  H   H31       1.0  0.23485882408453232  0.5785165824689341  0.7958243524370083  1.0000
  H   H32       1.0  0.7651411760251567  0.07851658227460794  0.7041756472942409  1.0000
  H   H33       1.0  0.9787646837407976  0.4158008449033407  0.3459984826053569  1.0000
  H   H34       1.0  0.021235316368517655  0.9158008443692719  0.15400151750055555  1.0000
  H   H35       1.0  0.021235316368704456  0.5841991554853115  0.6540015173132239  1.0000
  H   H36       1.0  0.9787646837409846  0.08419915529098546  0.8459984824180254  1.0000
  H   H37       1.0  0.5693429524056943  0.412839173652127  0.05858094020765833  1.0000
  H   H38       1.0  0.4306570473230093  0.9128391731180583  0.44141905908629625  1.0000
  H   H39       1.0  0.43065704770380786  0.5871608267365253  0.9414190597109225  1.0000
  H   H40       1.0  0.5693429527864929  0.08716082654219912  0.5585809408322846  1.0000
  C   C1        1.0  0.9756853684688328  0.1947454884434063  0.516387606580295  1.0000
  C   C2        1.0  0.024314630886574554  0.6947454886377324  0.9836123931525178  1.0000
  C   C3        1.0  0.024314631640669302  0.8052545112168511  0.4836123933382858  1.0000
  C   C4        1.0  0.9756853684686462  0.30525451102252493  0.016387606767626618  1.0000
  C   C5        1.0  0.04979764978696442  0.2718429002784606  0.40493238615217425  1.0000
  C   C6        1.0  0.9502023503223509  0.7718429004727867  0.09506761395373821  1.0000
  C   C7        1.0  0.9502023503225377  0.7281571001101917  0.5950676137664066  1.0000
  C   C8        1.0  0.049797649787151226  0.22815709991586558  0.9049323859648427  1.0000
  C   C9        1.0  0.9061795358025313  0.2749992999008369  0.5003882650660683  1.0000
  C   C10       1.0  0.09382046430715776  0.774999300095163  0.999611734665181  1.0000
  C   C11       1.0  0.09382046430697093  0.7250006997594205  0.49961173485251253  1.0000
  C   C12       1.0  0.9061795358023443  0.22500069956509433  0.00038826525339990517  1.0000
  C   C13       1.0  0.0484554879889425  0.19294373148247082  0.46799764333915195  1.0000
  C   C14       1.0  0.9515445121203728  0.692943731676797  0.03200235676676054  1.0000
  C   C15       1.0  0.9515445121205597  0.8070562681777866  0.5320023565794288  1.0000
  C   C16       1.0  0.048455488369741076  0.3070562687118553  0.9679976439637782  1.0000
  C   C17       1.0  0.8347083711527392  0.4356602229970407  0.42362570240040626  1.0000
  C   C18       1.0  0.1652916289565762  0.9356602231913669  0.07637429770550619  1.0000
  C   C19       1.0  0.165291628956763  0.5643397766632166  0.5763742975181746  1.0000
  C   C20       1.0  0.834708371152926  0.06433977719728538  0.9236257022130746  1.0000
  C   C21       1.0  0.7165483766712895  0.4206629087144148  0.33498494139164164  1.0000
  C   C22       1.0  0.283451623438026  0.9206629089087408  0.1650150587142708  1.0000
  C   C23       1.0  0.2834516238188246  0.5793370909458426  0.665015059338897  1.0000
  C   C24       1.0  0.7165483766714762  0.07933709147991136  0.8349849412043102  1.0000
  C   C25       1.0  0.6258048691557446  0.41608648278844657  0.36063037752519334  1.0000
  C   C26       1.0  0.37419513095357076  0.9160864829827727  0.13936962258071908  1.0000
  C   C27       1.0  0.3741951309537576  0.5839135176002057  0.6393696223933875  1.0000
  C   C28       1.0  0.6258048691559315  0.08391351740587959  0.8606303773378617  1.0000
  C   C29       1.0  0.514571055989476  0.4120896603718807  0.2789121485334902  1.0000
  C   C30       1.0  0.48542894411983956  0.9120896605662069  0.22108785157242225  1.0000
  C   C31       1.0  0.48542894412002635  0.5879103392883767  0.7210878513850907  1.0000
  C   C32       1.0  0.5145710559896627  0.0879103398224454  0.7789121483461586  1.0000
  C   C33       1.0  0.4958529310325274  0.4124148311632086  0.17092916835819086  1.0000
  C   C34       1.0  0.504147069076788  0.9124148313575348  0.3290708317477216  1.0000
  C   C35       1.0  0.5041470690769748  0.5875851684970488  0.8290708315603901  1.0000
  C   C36       1.0  0.4958529314133261  0.08758516903111754  0.6709291689828172  1.0000
  C   C37       1.0  0.6955312661108667  0.4175903590023574  0.2259099018051397  1.0000
  C   C38       1.0  0.3044687339984486  0.9175903591966836  0.27409009830077274  1.0000
  C   C39       1.0  0.3044687339986354  0.5824096413862948  0.7740900981134411  1.0000
  C   C40       1.0  0.6955312661110535  0.08240964119196871  0.7259099016178082  1.0000
  C   C41       1.0  0.9799156520629572  0.3506068665934427  0.3917313526049124  1.0000
  C   C42       1.0  0.020084347292076584  0.8506068667877689  0.10826864750256347  1.0000
  C   C43       1.0  0.020084347292263407  0.6493931330668147  0.6082686473152319  1.0000
  C   C44       1.0  0.9799156520631441  0.1493931328724885  0.8917313524175807  1.0000
  C   C45       1.0  0.5852757215820417  0.41325860166047873  0.14323999282966102  1.0000
  C   C46       1.0  0.41472427852727367  0.9132586018548048  0.3567600072762514  1.0000
  C   C47       1.0  0.4147242785274604  0.5867413979997786  0.8567600070889198  1.0000
  C   C48       1.0  0.5852757215822285  0.08674139853384745  0.6432399926423295  1.0000
  C   C49       1.0  0.4039250409301322  0.15413898200148993  0.117696787917563  1.0000
  C   C50       1.0  0.5960749591791832  0.654138982195816  0.38230321218834945  1.0000
  C   C51       1.0  0.5960749591793699  0.8458610183871624  0.8823032120010179  1.0000
  C   C52       1.0  0.403925040930319  0.3458610181928362  0.6176967877302314  1.0000
  C   C53       1.0  0.6090347508483878  0.1461989069732022  0.207806628981374  1.0000
  C   C54       1.0  0.3909652492609276  0.6461989071675283  0.29219337112453847  1.0000
  C   C55       1.0  0.3909652492611144  0.8538010926870552  0.7921933709372069  1.0000
  C   C56       1.0  0.609034750094293  0.353801092492729  0.7078066287956059  1.0000
  C   C57       1.0  0.5028403179938337  0.17632411635365533  0.30969707875806507  1.0000
  C   C58       1.0  0.49715968211548167  0.6763241158195866  0.19030292134784735  1.0000
  C   C59       1.0  0.4971596821156685  0.823675884034997  0.6903029211605157  1.0000
  C   C60       1.0  0.5028403179940206  0.3236758838406708  0.8096970785707336  1.0000
  C   C61       1.0  0.605012331782583  0.16363231477770704  0.30559105617588406  1.0000
  C   C62       1.0  0.39498766832673243  0.6636323142436382  0.19440894393002844  1.0000
  C   C63       1.0  0.3949876683269193  0.8363676856109452  0.6944089437426969  1.0000
  C   C64       1.0  0.6050123317827697  0.33636768541661904  0.8055910559885525  1.0000
  C   C65       1.0  0.4003976466499972  0.1718580233207311  0.2158505439583852  1.0000
  C   C66       1.0  0.5996023534593181  0.6718580227866623  0.28414945614752724  1.0000
  C   C67       1.0  0.599602353459505  0.8281419770679211  0.7841494559601956  1.0000
  C   C68       1.0  0.4003976466501841  0.32814197687359503  0.7158505437710537  1.0000
  C   C69       1.0  0.5065054189055412  0.1415862936589078  0.11389314660955137  1.0000
  C   C70       1.0  0.49349458120377404  0.641586293853234  0.38610685349636104  1.0000
  C   C71       1.0  0.4934945812039609  0.8584137060013495  0.8861068533090295  1.0000
  C   C72       1.0  0.5065054189057281  0.3584137058070234  0.6138931464222198  1.0000
  N   N1        1.0  0.9094887761146775  0.3504256397506312  0.4388061272561486  1.0000
  N   N2        1.0  0.0905112239946378  0.8504256399449573  0.061193872849763825  1.0000
  N   N3        1.0  0.09051122399482464  0.6495743599096262  0.5611938726624323  1.0000
  N   N4        1.0  0.9094887761148643  0.14957436044369493  0.938806127068817  1.0000
  F   F1        1.0  0.7015585625902382  0.1683943014962974  0.40001741697080884  1.0000
  F   F2        1.0  0.29844143751907726  0.6683943016906235  0.0999825831351036  1.0000
  F   F3        1.0  0.29844143751926405  0.83160569816396  0.5999825829477721  1.0000
  F   F4        1.0  0.701558562590425  0.33160569869802875  0.9000174167834774  1.0000
  F   F5        1.0  0.30688348496922757  0.14607811724259837  0.024079364700863658  1.0000
  F   F6        1.0  0.6931165151400879  0.6460781174369246  0.47592063540504886  1.0000
  F   F7        1.0  0.6931165143859931  0.853921882417659  0.9759206352192806  1.0000
  F   F8        1.0  0.30688348496941437  0.3539218829517278  0.5240793645135321  1.0000
  F   F9        1.0  0.5047821206823565  0.193202340088657  0.40727896280885895  1.0000
  F   F10       1.0  0.4952178794269589  0.6932023402829831  0.09272103729705346  1.0000
  F   F11       1.0  0.49521787942714574  0.8067976595716003  0.5927210371097219  1.0000
  F   F12       1.0  0.5047821199282618  0.3067976601056691  0.9072789626230909  1.0000
  F   F13       1.0  0.5044835890977454  0.12209612802735044  0.016606620493070184  1.0000
  F   F14       1.0  0.49551641101156996  0.6220961282216766  0.48339337961284223  1.0000
  F   F15       1.0  0.4955164110117568  0.8779038723613019  0.9833933794255106  1.0000
  F   F16       1.0  0.504483589478544  0.37790387216697574  0.5166066211176965  1.0000
  Br  Br1       1.0  0.34491664211468887  0.41623967371055043  0.05783041117982906  1.0000
  Br  Br2       1.0  0.6550833579946266  0.9162396739048766  0.4421695889260834  1.0000
  Br  Br3       1.0  0.6550833579948133  0.583760325949707  0.9421695887387518  1.0000
  Br  Br4       1.0  0.34491664211487566  0.08376032648377572  0.5578304109924975  1.0000
  Br  Br5       1.0  0.00994604670781739  0.09008484705967996  0.21726880117306188  1.0000
  Br  Br6       1.0  0.9900539530208862  0.5900848472540061  0.2827311981208927  1.0000
  Br  Br7       1.0  0.9900539534016847  0.9099151526005774  0.782731198745519  1.0000
  Br  Br8       1.0  0.009946047088615998  0.4099151524062512  0.7172688017976881  1.0000
  I   I1        1.0  0.9753624221550009  0.08100576194709973  0.6190281871176103  1.0000
  I   I2        1.0  0.02463757720040648  0.5810057621414259  0.8809718126152024  1.0000
  I   I3        1.0  0.02463757720021969  0.9189942384415526  0.38097181280253395  1.0000
  I   I4        1.0  0.975362422154814  0.4189942382472264  0.1190281873049419  1.0000
  I   I5        1.0  0.7663060267770142  0.12503415193728656  0.20627173467304696  1.0000
  I   I6        1.0  0.2336939725780195  0.6250341521316127  0.2937282654344289  1.0000
  I   I7        1.0  0.23369397257820632  0.8749658477229707  0.7937282652470973  1.0000
  I   I8        1.0  0.766306026777201  0.37496584752864465  0.7062717344857155  1.0000
  I   I9        1.0  0.24687147333418172  0.1791065791443979  0.2249666995081564  1.0000
  I   I10       1.0  0.7531285267751336  0.679106579338724  0.27503330059775605  1.0000
  I   I11       1.0  0.753128526021039  0.8208934212442545  0.7750333004119879  1.0000
  I   I12       1.0  0.24687147333436849  0.3208934210499283  0.7249666993208248  1.0000
