data_image0
_chemical_formula_structural       H36C56N16O2
_chemical_formula_sum              "H36 C56 N16 O2"
_cell_length_a       7.544820430374285
_cell_length_b       9.761867990185115
_cell_length_c       16.924429320104284
_cell_angle_alpha    90.98106469179163
_cell_angle_beta     96.36968745203689
_cell_angle_gamma    105.8633072689691

_space_group_name_H-M_alt    "P 1"
_space_group_IT_number       1

loop_
  _space_group_symop_operation_xyz
  'x, y, z'

loop_
  _atom_site_type_symbol
  _atom_site_label
  _atom_site_symmetry_multiplicity
  _atom_site_fract_x
  _atom_site_fract_y
  _atom_site_fract_z
  _atom_site_occupancy
  H   H1        1.0  0.6836738243066589  0.2822307959410869  0.20409758499526906  1.0000
  H   H2        1.0  0.3163261754916267  0.7177692038568042  0.7959024146330085  1.0000
  H   H3        1.0  0.4781377718869044  0.3958360322760439  0.2656359040772969  1.0000
  H   H4        1.0  0.5218622279168531  0.6041639675221697  0.7343640961421115  1.0000
  H   H5        1.0  0.30378274282665846  0.28915598005392656  0.19212168697004625  1.0000
  H   H6        1.0  0.6962172569770991  0.7108440197442871  0.8078783132493623  1.0000
  H   H7        1.0  0.4233234395289957  0.20635214985352693  0.2661610222795033  1.0000
  H   H8        1.0  0.5766765602747618  0.7936478499446866  0.7338389779399052  1.0000
  H   H9        1.0  0.37054056144197406  0.0770091189880356  0.11332473502861802  1.0000
  H   H10       1.0  0.6294594387481679  0.9229908818764421  0.8866752652202482  1.0000
  H   H11       1.0  0.26851009824999783  0.822112694175209  0.1402182329809692  1.0000
  H   H12       1.0  0.731489901940144  0.1778873066892686  0.859781767267897  1.0000
  H   H13       1.0  0.11329114561822712  0.6414736555474602  0.03091173205302453  1.0000
  H   H14       1.0  0.8867088541855304  0.3585263442507534  0.9690882681663839  1.0000
  H   H15       1.0  0.0628602451723325  0.718873824380769  0.8928187098226418  1.0000
  H   H16       1.0  0.937139754631425  0.2811261754174447  0.10718129039676667  1.0000
  H   H17       1.0  0.16062400788546108  0.9733969539825432  0.8644805550217158  1.0000
  H   H18       1.0  0.8393759919182963  0.026603045815670332  0.13551944519769268  1.0000
  H   H19       1.0  0.3270955048465573  0.46391584628031773  0.8592234767153574  1.0000
  H   H20       1.0  0.6729044949572001  0.5360841535178958  0.14077652350405112  1.0000
  H   H21       1.0  0.18725542339559376  0.19531369312550978  0.8535162136236935  1.0000
  H   H22       1.0  0.8127445764081636  0.8046863066727038  0.14648378659571504  1.0000
  H   H23       1.0  0.4934161508532502  0.2951574140402116  0.077438794514811  1.0000
  H   H24       1.0  0.5065838493368917  0.7048425868242663  0.9225612057340552  1.0000
  H   H25       1.0  0.2987342310863169  0.7351521901773267  0.5607322136013242  1.0000
  H   H26       1.0  0.7012657687174406  0.26484780962088694  0.4392677866180843  1.0000
  H   H27       1.0  0.740342959366352  0.6115765698892575  0.43325341769478487  1.0000
  H   H28       1.0  0.2596570408237898  0.38842343097522014  0.5667465825540813  1.0000
  H   H29       1.0  0.8675231270809711  0.5897757424324738  0.3094044483927131  1.0000
  H   H30       1.0  0.13247687310917058  0.4102242584320038  0.6905955518561532  1.0000
  H   H31       1.0  0.4251384976614718  0.7082719207170056  0.4366482581935922  1.0000
  H   H32       1.0  0.5748615021368138  0.2917280790808854  0.5633517414346854  1.0000
  H   H33       1.0  0.7942003395658372  0.9253321976991931  0.3718062103151136  1.0000
  H   H34       1.0  0.20579966023792026  0.0746678020990206  0.6281937899042949  1.0000
  H   H35       1.0  0.34303522337531667  0.04888101323798533  0.506877268779323  1.0000
  H   H36       1.0  0.656964776428441  0.9511189865602284  0.4931227314400855  1.0000
  C   C1        1.0  0.4374401335779295  0.2972642343882095  0.22784246022442872  1.0000
  C   C2        1.0  0.562559866225828  0.7027357654100042  0.7721575399949798  1.0000
  C   C3        1.0  0.18395123107273822  0.9419996415854726  0.9253275524652933  1.0000
  C   C4        1.0  0.8160487687310192  0.05800035821274094  0.07467244775411518  1.0000
  C   C5        1.0  0.2698238462672722  0.04470003620161342  0.9872917631499594  1.0000
  C   C6        1.0  0.7301761539228696  0.9552999646628643  0.012708237098906849  1.0000
  C   C7        1.0  0.3011789285111548  0.9996555611649987  0.06479766376177624  1.0000
  C   C8        1.0  0.6988210712926026  0.0003444386332149837  0.9352023364576323  1.0000
  C   C9        1.0  0.24503765400424854  0.8554460232981564  0.07984576411970479  1.0000
  C   C10       1.0  0.7549623461858933  0.14455397756632132  0.9201542361291616  1.0000
  C   C11       1.0  0.15776430937993147  0.7540790409052738  0.018360230370443154  1.0000
  C   C12       1.0  0.8422356917514304  0.245920958891072  0.9816397693213778  1.0000
  C   C13       1.0  0.12806492011529472  0.7980453910241683  0.9410759269323002  1.0000
  C   C14       1.0  0.8719350800693753  0.20195460983998684  0.058924072725435137  1.0000
  C   C15       1.0  0.3244907809083768  0.19498374579367192  0.9708740957361182  1.0000
  C   C16       1.0  0.675509219276293  0.8050162550704831  0.029125903921617267  1.0000
  C   C17       1.0  0.35084534098189507  0.396548517229923  0.9070805676597541  1.0000
  C   C18       1.0  0.6491546588218623  0.6034514825682906  0.09291943255965439  1.0000
  C   C19       1.0  0.4483461730827439  0.43163398876370773  0.9817927751312114  1.0000
  C   C20       1.0  0.5516538267210136  0.5683660110345059  0.018207225088197162  1.0000
  C   C21       1.0  0.11566631283061418  0.5719847676870576  0.21935153607877825  1.0000
  C   C22       1.0  0.8843336886871319  0.4280152331755522  0.7806484636425005  1.0000
  C   C23       1.0  0.4223622325233561  0.6549384224017529  0.2867030517134893  1.0000
  C   C24       1.0  0.5776377672804014  0.34506157739646076  0.7132969485059192  1.0000
  C   C25       1.0  0.22989830649418647  0.6256368295751128  0.29118382699061585  1.0000
  C   C26       1.0  0.770101693309571  0.37436317022310084  0.7088161732287928  1.0000
  C   C27       1.0  0.15693901398869636  0.6463423521251423  0.36277580727639974  1.0000
  C   C28       1.0  0.8430609858150612  0.3536576476730713  0.6372241929430086  1.0000
  C   C29       1.0  0.9615279977266036  0.6200996442167559  0.36434912187262375  1.0000
  C   C30       1.0  0.03847200207715385  0.3799003555814577  0.6356508783467847  1.0000
  C   C31       1.0  0.2758873938945363  0.6894551505244758  0.4360387231950827  1.0000
  C   C32       1.0  0.724112605909221  0.3105448492737377  0.5639612770243259  1.0000
  C   C33       1.0  0.2051024516168722  0.7040479736240877  0.5056792211270142  1.0000
  C   C34       1.0  0.7948975495199613  0.29595202617258065  0.4943207791559376  1.0000
  C   C35       1.0  0.8900743501943817  0.6344446416999331  0.43384531618926264  1.0000
  C   C36       1.0  0.10992564960390384  0.365555358097958  0.5661546834390149  1.0000
  C   C37       1.0  0.009217923030048857  0.6762994103450976  0.5072045007053195  1.0000
  C   C38       1.0  0.9907820767682366  0.3237005894527933  0.492795498922958  1.0000
  C   C39       1.0  0.9353398141453114  0.6879437762012265  0.5794096852285919  1.0000
  C   C40       1.0  0.064660185658446  0.31205622359698715  0.42059031499081656  1.0000
  C   C41       1.0  0.7418528387676528  0.6588517476827548  0.5815378120102895  1.0000
  C   C42       1.0  0.25814716103063284  0.3411482521151362  0.4184621876179881  1.0000
  C   C43       1.0  0.047387432082030286  0.7196386120404542  0.6537263209976132  1.0000
  C   C44       1.0  0.9526125677217273  0.2803613877577596  0.3462736792217953  1.0000
  C   C45       1.0  0.8839718646434406  0.9566571597695426  0.42785425159621066  1.0000
  C   C46       1.0  0.11602813554122932  0.04334284109461262  0.5721457480615247  1.0000
  C   C47       1.0  0.1931587269544375  0.02829262921202567  0.5041079676033943  1.0000
  C   C48       1.0  0.8068412728438482  0.9717073705858655  0.4958920320248833  1.0000
  C   C49       1.0  0.08029565412070483  0.9852500919882687  0.4298774731791496  1.0000
  C   C50       1.0  0.9197043456830526  0.014749907809944875  0.570122527040259  1.0000
  C   C51       1.0  0.16139468400441034  0.967710942950256  0.35993570424832133  1.0000
  C   C52       1.0  0.8386053157938752  0.032289056847635056  0.6400642953799563  1.0000
  C   C53       1.0  0.3543320825644548  0.994301008869676  0.35907641436116  1.0000
  C   C54       1.0  0.6456679172338308  0.0056989909282150865  0.6409235852671176  1.0000
  C   C55       1.0  0.05409944153992785  0.9257749454708712  0.286013363840998  1.0000
  C   C56       1.0  0.9459005582583578  0.07422505432701976  0.7139866357872796  1.0000
  N   N1        1.0  0.2772310130630733  0.25169001664072854  0.9022287368799095  1.0000
  N   N2        1.0  0.7227689867352123  0.7483099831571625  0.0977712627483681  1.0000
  N   N3        1.0  0.4297837157706939  0.3046591245800191  0.02014167291357907  1.0000
  N   N4        1.0  0.5702162840330636  0.6953408752181945  0.9798583273058294  1.0000
  N   N5        1.0  0.5807606852409745  0.6769175398994215  0.2804625468271358  1.0000
  N   N6        1.0  0.4192393145627829  0.3230824598987921  0.7195374533922727  1.0000
  N   N7        1.0  0.02550925975766793  0.5254310263339748  0.15895352132577792  1.0000
  N   N8        1.0  0.9744907400460897  0.47456897346423893  0.8410464788936305  1.0000
  N   N9        1.0  0.5812958947158375  0.6335661419337628  0.5829530796975994  1.0000
  N   N10       1.0  0.4187041054743043  0.3664338589307149  0.41704692055126685  1.0000
  N   N11       1.0  0.13701960108436198  0.7422894142490345  0.7160274959613026  1.0000
  N   N12       1.0  0.8629803987193956  0.2577105855491792  0.283972504258106  1.0000
  N   N13       1.0  0.513857716922186  0.015461270140638755  0.35596703953280245  1.0000
  N   N14       1.0  0.48614228288157163  0.984538729657575  0.644032960686606  1.0000
  N   N15       1.0  0.9681643956177567  0.8901591294376404  0.22369737465191586  1.0000
  N   N16       1.0  0.03183560418600083  0.10984087036057319  0.7763026255674927  1.0000
  O   O1        1.0  0.5716435867035754  0.2978959118983429  0.17362739397571747  1.0000
  O   O2        1.0  0.4283564144332584  0.7021040878983255  0.8263726063072343  1.0000
