data_image0
_chemical_formula_structural       H40C72N4F16I20
_chemical_formula_sum              "H40 C72 N4 F16 I20"
_cell_length_a       7.503563122083649
_cell_length_b       24.3190600835308
_cell_length_c       15.154707854539296
_cell_angle_alpha    90.0
_cell_angle_beta     124.95694066530186
_cell_angle_gamma    90.0

_space_group_name_H-M_alt    "P 1"
_space_group_IT_number       1

loop_
  _space_group_symop_operation_xyz
  'x, y, z'

loop_
  _atom_site_type_symbol
  _atom_site_label
  _atom_site_symmetry_multiplicity
  _atom_site_fract_x
  _atom_site_fract_y
  _atom_site_fract_z
  _atom_site_occupancy
  H   H1        1.0  0.7653836826113981  0.17300781385253042  0.8113183683305782  1.0000
  H   H2        1.0  0.2346163181143502  0.6730078137799371  0.6886816318579015  1.0000
  H   H3        1.0  0.2346163169890832  0.826992186002283  0.18868163144666622  1.0000
  H   H4        1.0  0.765383681486131  0.3269921860748763  0.3113183679193429  1.0000
  H   H5        1.0  0.5402001781378328  0.3402140815303571  0.7832485796578712  1.0000
  H   H6        1.0  0.45979982125864  0.8402140814577639  0.7167514205335603  1.0000
  H   H7        1.0  0.4597998214626485  0.6597859183244564  0.2167514201193732  1.0000
  H   H8        1.0  0.5402001783418413  0.15978591839704964  0.28324857924368413  1.0000
  H   H9        1.0  0.36144626751887365  0.24166713803137746  0.505966228681039  1.0000
  H   H10       1.0  0.6385537332068746  0.7416671379587841  0.9940337715074407  1.0000
  H   H11       1.0  0.6385537334108831  0.758332862234636  0.49403377109325364  1.0000
  H   H12       1.0  0.36144626733016133  0.25833286230722935  0.005966229074916308  1.0000
  H   H13       1.0  0.3446545906385126  0.33076778676357976  0.583557429176232  1.0000
  H   H14       1.0  0.6553454087579603  0.8307677866909864  0.9164425710151997  1.0000
  H   H15       1.0  0.6553454089619686  0.6692322130912337  0.4164425706010125  1.0000
  H   H16       1.0  0.3446545908425212  0.16923221316382697  0.08355742876204493  1.0000
  H   H17       1.0  0.3861971529664967  0.11343409081291626  0.7141150346097587  1.0000
  H   H18       1.0  0.613802846429976  0.6134340911515231  0.7858849655816728  1.0000
  H   H19       1.0  0.6138028475705392  0.8865659090418971  0.2858849659725984  1.0000
  H   H20       1.0  0.3861971531705051  0.3865659091144904  0.21411503419557157  1.0000
  H   H21       1.0  0.6871739733151109  0.1265731368493373  0.6694655248509491  1.0000
  H   H22       1.0  0.31282602647408286  0.6265731371879442  0.8305344745324182  1.0000
  H   H23       1.0  0.31282602628537043  0.8734268630054762  0.3305344749262954  1.0000
  H   H24       1.0  0.6871739731263986  0.37342686307806944  0.16946552524482636  1.0000
  H   H25       1.0  0.5806497364415251  0.16038843222569565  0.5444310643501205  1.0000
  H   H26       1.0  0.4193502633476686  0.6603884321531024  0.9555689350332467  1.0000
  H   H27       1.0  0.41935026315895624  0.8396115680403179  0.455568935427124  1.0000
  H   H28       1.0  0.5806497362528129  0.33961156770171114  0.04443106474399778  1.0000
  H   H29       1.0  0.024460297594331153  0.074097392078912  0.6394854877042881  1.0000
  H   H30       1.0  0.9755397008655872  0.5740973920063187  0.860514511682031  1.0000
  H   H31       1.0  0.9755397020061501  0.9259026077759014  0.3605145120729563  1.0000
  H   H32       1.0  0.02446029873489422  0.4259026078484947  0.1394854880952136  1.0000
  H   H33       1.0  0.8698464241841456  0.08857210733480246  0.3184065637819016  1.0000
  H   H34       1.0  0.1301535752276235  0.5885721072622092  0.18159343638922024  1.0000
  H   H35       1.0  0.13015357541633576  0.9114278929312111  0.6815934359953429  1.0000
  H   H36       1.0  0.8698464243728579  0.41142789300380433  0.8184065633880243  1.0000
  H   H37       1.0  0.23134501088182904  0.13003966062576772  0.39384739696439347  1.0000
  H   H38       1.0  0.7686549889226607  0.6300396605531745  0.10615260239866385  1.0000
  H   H39       1.0  0.7686549887186522  0.8699603392290457  0.606152602812851  1.0000
  H   H40       1.0  0.23134501067782057  0.36996033930163896  0.8938473973785805  1.0000
  C   C1        1.0  0.49621510798909707  0.4579354235627646  0.5597291377254076  1.0000
  C   C2        1.0  0.5037848914073757  0.9579354234901715  0.940270862466024  1.0000
  C   C3        1.0  0.5037848916113842  0.5420645767032488  0.44027086205183685  1.0000
  C   C4        1.0  0.49621510819310566  0.04206457677584217  0.0597291373112205  1.0000
  C   C5        1.0  0.4134054069539456  0.4475529651481407  0.4523290231452093  1.0000
  C   C6        1.0  0.5865945924578234  0.9475529650755474  0.04767097702591246  1.0000
  C   C7        1.0  0.5865945926465357  0.5524470347066728  0.5476709766320351  1.0000
  C   C8        1.0  0.4134054080792126  0.05244703477926603  0.9523290235564447  1.0000
  C   C9        1.0  0.5810685958950322  0.5091539211412762  0.6063604259718486  1.0000
  C   C10       1.0  0.41893140350144054  0.009153921213869518  0.893639574219583  1.0000
  C   C11       1.0  0.4189314046420037  0.4908460791247373  0.3936395746105085  1.0000
  C   C12       1.0  0.5810685960990408  0.9908460790521441  0.10636042555766148  1.0000
  C   C13       1.0  0.6707457113656057  0.2574671697217557  0.8135702732952185  1.0000
  C   C14       1.0  0.3292542893601426  0.7574671700603626  0.6864297268932612  1.0000
  C   C15       1.0  0.3292542882348757  0.7425328301330577  0.18642972648202596  1.0000
  C   C16       1.0  0.6707457111768934  0.242532830205651  0.31357027368909585  1.0000
  C   C17       1.0  0.6747744635661557  0.2091993096166305  0.7655838871844456  1.0000
  C   C18       1.0  0.32522553715959257  0.7091993095440372  0.7344161130040342  1.0000
  C   C19       1.0  0.3252255360343255  0.7908006906493831  0.23441611259279882  1.0000
  C   C20       1.0  0.6747744624408889  0.2908006903107762  0.2655838867732104  1.0000
  C   C21       1.0  0.549455384156853  0.30201678497328005  0.7482680722923118  1.0000
  C   C22       1.0  0.4505446165688953  0.8020167849006868  0.7517319278961679  1.0000
  C   C23       1.0  0.4505446154436282  0.6979832152927334  0.2517319274849326  1.0000
  C   C24       1.0  0.5494553843608614  0.19798321536532676  0.24826807187812466  1.0000
  C   C25       1.0  0.33428371653881367  0.12451160610646325  0.559167236654025  1.0000
  C   C26       1.0  0.6657162841869348  0.6245116060338699  0.9408327635344548  1.0000
  C   C27       1.0  0.6657162830616677  0.8754883937483502  0.44083276312321945  1.0000
  C   C28       1.0  0.3342837163501014  0.3754883938209435  0.059167237047902374  1.0000
  C   C29       1.0  0.4464865990128442  0.2481220297690029  0.5923828832384861  1.0000
  C   C30       1.0  0.5535134017129041  0.7481220296964096  0.9076171169499937  1.0000
  C   C31       1.0  0.5535134019169125  0.7518779704970107  0.40761711653580657  1.0000
  C   C32       1.0  0.4464865978875773  0.2518779705696039  0.09238288282725078  1.0000
  C   C33       1.0  0.9253474203741119  0.07906346065167674  0.4745325990034547  1.0000
  C   C34       1.0  0.07465258036693263  0.5790634605790834  0.025467401164715298  1.0000
  C   C35       1.0  0.07465257922636932  0.9209365396143369  0.5254674007737897  1.0000
  C   C36       1.0  0.9253474201701036  0.4209365396869301  0.9745325994176419  1.0000
  C   C37       1.0  0.4397735468859494  0.29696945873705244  0.6369743212860778  1.0000
  C   C38       1.0  0.5602264538397989  0.7969694586644592  0.8630256789024019  1.0000
  C   C39       1.0  0.5602264527145318  0.703030541117761  0.36302567849116657  1.0000
  C   C40       1.0  0.4397735466972372  0.20303054119035427  0.13697432167995516  1.0000
  C   C41       1.0  0.27423835207602737  0.10820703723587094  0.6272067054674859  1.0000
  C   C42       1.0  0.7257616463838907  0.6082070371632776  0.8727932939188329  1.0000
  C   C43       1.0  0.725761647524454  0.8917929626189425  0.37279329430975855  1.0000
  C   C44       1.0  0.2742383532165905  0.3917929626915358  0.12720670585841143  1.0000
  C   C45       1.0  0.5517691564998833  0.15166914047380758  0.6063347509367113  1.0000
  C   C46       1.0  0.4482308428965895  0.6516691404012144  0.8936652492547202  1.0000
  C   C47       1.0  0.44823084403715263  0.8483308593810058  0.39366524964564575  1.0000
  C   C48       1.0  0.5517691567038918  0.34833085945359915  0.10633475052252422  1.0000
  C   C49       1.0  0.06997630849800288  0.08590782961282427  0.5856639124561077  1.0000
  C   C50       1.0  0.9300236908984699  0.585907829540231  0.9143360877353238  1.0000
  C   C51       1.0  0.9300236920390331  0.9140921706531893  0.4143360881262494  1.0000
  C   C52       1.0  0.06997630870201133  0.4140921707257826  0.08566391204192052  1.0000
  C   C53       1.0  0.9829622178546221  0.09400890503775067  0.4050637899545055  1.0000
  C   C54       1.0  0.01703778155714704  0.5940089049651573  0.09493621021661633  1.0000
  C   C55       1.0  0.017037782682414033  0.9059910952282628  0.5949362106278516  1.0000
  C   C56       1.0  0.9829622180433344  0.40599109488965607  0.9050637895606283  1.0000
  C   C57       1.0  0.18768650439786103  0.11713409071796753  0.44809635547939897  1.0000
  C   C58       1.0  0.8123134950139079  0.6171340906453743  0.05190364469172276  1.0000
  C   C59       1.0  0.8123134952026203  0.882865909548046  0.5519036442978454  1.0000
  C   C60       1.0  0.1876865055231278  0.3828659092094392  0.9480963558906342  1.0000
  C   C61       1.0  0.08291022140466331  0.9951519864202875  0.10811429615864097  1.0000
  C   C62       1.0  0.9170897783998263  0.49515198649288084  0.3918857032044163  1.0000
  C   C63       1.0  0.9170897781958179  0.004848013434525906  0.8918857036186034  1.0000
  C   C64       1.0  0.08291022252993033  0.5048480133619326  0.6081142965698763  1.0000
  C   C65       1.0  0.9133320803412193  0.04928750066338813  0.9488472691692097  1.0000
  C   C66       1.0  0.08666792038452895  0.5492875005907949  0.55115273101927  1.0000
  C   C67       1.0  0.08666791925926198  0.9507124996026255  0.051152730608034706  1.0000
  C   C68       1.0  0.9133320792159523  0.4507124996752187  0.4488472687579744  1.0000
  C   C69       1.0  0.9976777444800529  0.04579074915621994  0.05806569874468944  1.0000
  C   C70       1.0  0.0023222549317162343  0.5457907490836267  0.4419343014264323  1.0000
  C   C71       1.0  0.002322256056983182  0.9542092506985935  0.9419343018376676  1.0000
  C   C72       1.0  0.997677744668765  0.4542092507711868  0.5580656983508121  1.0000
  N   N1        1.0  0.5603971143710282  0.20503679306984365  0.6570897283876773  1.0000
  N   N2        1.0  0.43960288635472006  0.7050367929972503  0.8429102718008025  1.0000
  N   N3        1.0  0.43960288522945307  0.7949632067849698  0.3429102713895671  1.0000
  N   N4        1.0  0.5603971132457614  0.29496320685756305  0.15708972797644202  1.0000
  F   F1        1.0  0.495551587775568  0.4180196197995517  0.6221772178533771  1.0000
  F   F2        1.0  0.5044484129501803  0.9180196201381585  0.8778227823351027  1.0000
  F   F3        1.0  0.5044484118249133  0.5819803800552618  0.3778227819238674  1.0000
  F   F4        1.0  0.49555158797957644  0.081980380127855  0.12217721743918994  1.0000
  F   F5        1.0  0.6577567523494734  0.5160915252024734  0.7112309398573181  1.0000
  F   F6        1.0  0.34224324704699965  0.016091525275066635  0.7887690603341135  1.0000
  F   F7        1.0  0.34224324818756274  0.4839084746523401  0.28876906072503905  1.0000
  F   F8        1.0  0.6577567525534816  0.9839084745797468  0.21123093944313093  1.0000
  F   F9        1.0  0.8233354260199299  0.09714298545608131  0.8948877470764884  1.0000
  F   F10       1.0  0.17666457470581837  0.5971429853834881  0.6051122531119913  1.0000
  F   F11       1.0  0.17666457358055143  0.9028570143987321  0.10511225270075603  1.0000
  F   F12       1.0  0.8233354258312177  0.4028570144713254  0.39488774747036576  1.0000
  F   F13       1.0  0.16277766661127133  0.9878422150150848  0.21334603962442508  1.0000
  F   F14       1.0  0.8372223328004976  0.487842214676478  0.2866539605466966  1.0000
  F   F15       1.0  0.8372223339257646  0.012157785250928714  0.7866539609579319  1.0000
  F   F16       1.0  0.16277766679998368  0.5121577851783354  0.7133460392305478  1.0000
  I   I1        1.0  0.2915051796779454  0.3689661610761255  0.3802078643358379  1.0000
  I   I2        1.0  0.7084948197338237  0.8689661610035323  0.11979213583528384  1.0000
  I   I3        1.0  0.7084948199225359  0.6310338387786879  0.6197921354414065  1.0000
  I   I4        1.0  0.29150517986665786  0.1310338388512812  0.8802078639419607  1.0000
  I   I5        1.0  0.11061373127176531  0.24592310720306812  0.2606509997626218  1.0000
  I   I6        1.0  0.8893862681400039  0.7459231071304748  0.23934900040850002  1.0000
  I   I7        1.0  0.889386268328716  0.7540768926517453  0.7393490000146227  1.0000
  I   I8        1.0  0.11061373239703229  0.2540768927243386  0.7606510001738571  1.0000
  I   I9        1.0  0.8420372561459846  0.2606241852370056  0.9825992499221343  1.0000
  I   I10       1.0  0.15796274325048806  0.7606241851644123  0.5174007502692972  1.0000
  I   I11       1.0  0.15796274439105132  0.7393758146178078  0.017400750660222748  1.0000
  I   I12       1.0  0.8420372563499932  0.23937581469040115  0.4825992495079472  1.0000
  I   I13       1.0  0.6127702070146201  0.0485235295256803  0.4127027478221615  1.0000
  I   I14       1.0  0.38722979372642424  0.548523529453087  0.08729725234600848  1.0000
  I   I15       1.0  0.3872297935224158  0.9514764707403333  0.5872972527601956  1.0000
  I   I16       1.0  0.6127702058740571  0.45147647040172645  0.912702747431236  1.0000
  I   I17       1.0  0.015244809877747933  0.11652611697436004  0.14364732855273252  1.0000
  I   I18       1.0  0.9847551908632965  0.6165261169017667  0.3563526716154375  1.0000
  I   I19       1.0  0.9847551910520087  0.8834738832916534  0.8563526712215601  1.0000
  I   I20       1.0  0.015244809673739548  0.3834738829530467  0.6436473289669197  1.0000
