data_image0
_chemical_formula_structural       H40C72N4F16Br4I16
_chemical_formula_sum              "H40 C72 N4 F16 Br4 I16"
_cell_length_a       7.426469425629052
_cell_length_b       24.28569465312249
_cell_length_c       15.174166114866182
_cell_angle_alpha    90.0
_cell_angle_beta     125.26577448850345
_cell_angle_gamma    90.0

_space_group_name_H-M_alt    "P 1"
_space_group_IT_number       1

loop_
  _space_group_symop_operation_xyz
  'x, y, z'

loop_
  _atom_site_type_symbol
  _atom_site_label
  _atom_site_symmetry_multiplicity
  _atom_site_fract_x
  _atom_site_fract_y
  _atom_site_fract_z
  _atom_site_occupancy
  H   H1        1.0  0.7653726674765217  0.6709017465928286  0.8120577018729571  1.0000
  H   H2        1.0  0.23462733322987492  0.17090174645123277  0.6879422980024374  1.0000
  H   H3        1.0  0.23462733348704728  0.32909825369036305  0.18794229831377243  1.0000
  H   H4        1.0  0.7653726677336938  0.8290982534201938  0.312057702184292  1.0000
  H   H5        1.0  0.539985151953702  0.8392271726672442  0.7742068271969914  1.0000
  H   H6        1.0  0.4600148474084958  0.33922717293741345  0.72579317268038  1.0000
  H   H7        1.0  0.4600148480543784  0.16077282720418243  0.2257931721826016  1.0000
  H   H8        1.0  0.5399851522108744  0.6607728273457782  0.2742068275083265  1.0000
  H   H9        1.0  0.36796007719499624  0.7369957098467733  0.502591746121617  1.0000
  H   H10       1.0  0.6320399235114001  0.23699570970517753  0.9974082537537776  1.0000
  H   H11       1.0  0.6320399237685725  0.2630042904364184  0.4974082540651125  1.0000
  H   H12       1.0  0.36796007745216863  0.7630042901662492  0.0025917464329519185  1.0000
  H   H13       1.0  0.35043241766356154  0.8275635289442271  0.5752774263855305  1.0000
  H   H14       1.0  0.6495675816986364  0.32756352880263134  0.9247225734918411  1.0000
  H   H15       1.0  0.6495675819558088  0.1724364713389645  0.4247225738031761  1.0000
  H   H16       1.0  0.35043241792073393  0.6724364710687953  0.07527742669686543  1.0000
  H   H17       1.0  0.694193337806382  0.6225512305062308  0.674343032787654  1.0000
  H   H18       1.0  0.3058066629000144  0.12255123077640008  0.8256569670877405  1.0000
  H   H19       1.0  0.3058066631571867  0.37744876936519584  0.32565696739907546  1.0000
  H   H20       1.0  0.6941933371080662  0.8774487695067916  0.17434303229185258  1.0000
  H   H21       1.0  0.5982454352005376  0.6549785528969762  0.5493144663563324  1.0000
  H   H22       1.0  0.40175456416166055  0.1549785531671453  0.9506855335210393  1.0000
  H   H23       1.0  0.4017545634633446  0.34502144697445053  0.45068553302523784  1.0000
  H   H24       1.0  0.5982454354577098  0.8450214471160465  0.049314466667667346  1.0000
  H   H25       1.0  0.24143366915890196  0.629869703069549  0.39303219635033815  1.0000
  H   H26       1.0  0.7585663320618392  0.12986970292795322  0.10696780414772633  1.0000
  H   H27       1.0  0.7585663318046668  0.3701302968018776  0.6069678038363914  1.0000
  H   H28       1.0  0.2414336689017296  0.8701302969434734  0.8930321960390032  1.0000
  H   H29       1.0  0.3831309898928722  0.6061950123426739  0.7092570965406169  1.0000
  H   H30       1.0  0.6168690108135242  0.10619501220107808  0.7907429033347776  1.0000
  H   H31       1.0  0.6168690101152082  0.3938049875287527  0.2907429028389762  1.0000
  H   H32       1.0  0.3831309901500446  0.8938049876703487  0.20925709685195187  1.0000
  H   H33       1.0  0.009234325580032426  0.5688902395972291  0.6264134358637176  1.0000
  H   H34       1.0  0.9907656737821656  0.06889023945563323  0.8735865640136541  1.0000
  H   H35       1.0  0.9907656753835364  0.43110976027419756  0.37358656432301196  1.0000
  H   H36       1.0  0.009234325837204755  0.9311097604157935  0.12641343617505252  1.0000
  H   H37       1.0  0.8671542637052422  0.5912272827721605  0.30958959889390203  1.0000
  H   H38       1.0  0.13284573656001056  0.09122728263056472  0.190410400797026  1.0000
  H   H39       1.0  0.13284573630283814  0.4087727175110311  0.690410400485691  1.0000
  H   H40       1.0  0.867154264403558  0.908772717240862  0.8095895993897033  1.0000
  C   C1        1.0  0.49588441109217746  0.9569768360326414  0.5578978043887823  1.0000
  C   C2        1.0  0.5041155882700208  0.4569768363028106  0.9421021954885894  1.0000
  C   C3        1.0  0.5041155875717048  0.04302316383878525  0.44210219499278797  1.0000
  C   C4        1.0  0.4958844113493497  0.5430231639803811  0.057897804700117204  1.0000
  C   C5        1.0  0.5852250507774424  0.007628253696098449  0.6073457853757163  1.0000
  C   C6        1.0  0.4147749499289541  0.5076282538376943  0.8926542144996783  1.0000
  C   C7        1.0  0.4147749501861265  0.9923717461753282  0.39265421481101326  1.0000
  C   C8        1.0  0.5852250510346148  0.4923717460337324  0.10734578568705122  1.0000
  C   C9        1.0  0.40917176639701597  0.9481308909992191  0.44952569957892036  1.0000
  C   C10       1.0  0.5908282325240386  0.4481308912693883  0.05047430011398482  1.0000
  C   C11       1.0  0.5908282322668662  0.05186910887220758  0.5504742998026498  1.0000
  C   C12       1.0  0.409171767095332  0.5518691090138035  0.9495257000747218  1.0000
  C   C13       1.0  0.6692097643033407  0.7560077359219934  0.8092370892863343  1.0000
  C   C14       1.0  0.33079023505885735  0.2560077357803977  0.6907629105910374  1.0000
  C   C15       1.0  0.33079023436054145  0.2439922643611982  0.19076291009523594  1.0000
  C   C16       1.0  0.669209764560513  0.743992264091029  0.3092370895976692  1.0000
  C   C17       1.0  0.6752381304468836  0.706855537187315  0.7640780182479944  1.0000
  C   C18       1.0  0.32476186987080263  0.20685553704571902  0.7359219824365137  1.0000
  C   C19       1.0  0.3247618691724867  0.29314446268411176  0.2359219819407123  1.0000
  C   C20       1.0  0.6752381297485678  0.7931444628257077  0.2640780177521929  1.0000
  C   C21       1.0  0.5499306562090667  0.8003050230848988  0.7414615068650112  1.0000
  C   C22       1.0  0.4500693431531314  0.30030502294330297  0.7585384930123604  1.0000
  C   C23       1.0  0.45006934475450217  0.19969497719829288  0.2585384933217183  1.0000
  C   C24       1.0  0.549930656466239  0.6996949769281237  0.24146150717634618  1.0000
  C   C25       1.0  0.45150431525533996  0.7442151479770908  0.5887087187630321  1.0000
  C   C26       1.0  0.5484956850623462  0.244215147835495  0.9112912819214759  1.0000
  C   C27       1.0  0.5484956843640303  0.2557848523061009  0.4112912814256744  1.0000
  C   C28       1.0  0.45150431590122264  0.7557848520359317  0.08870871826525364  1.0000
  C   C29       1.0  0.33811330316407956  0.6207670081226875  0.556812765399369  1.0000
  C   C30       1.0  0.6618866961981185  0.12076700839285673  0.9431872344780027  1.0000
  C   C31       1.0  0.6618866954998026  0.37923299174873915  0.4431872339822012  1.0000
  C   C32       1.0  0.3381133034212519  0.879232991890335  0.05681276571070397  1.0000
  C   C33       1.0  0.44381526079266675  0.7939732070839005  0.6305697513306591  1.0000
  C   C34       1.0  0.5561847385695312  0.2939732069423046  0.8694302485467126  1.0000
  C   C35       1.0  0.5561847388267036  0.20602679278752617  0.36943024885804754  1.0000
  C   C36       1.0  0.4438152623940376  0.7060267929291221  0.13056975164001694  1.0000
  C   C37       1.0  0.5605986480741304  0.6473796452834246  0.6083425233378358  1.0000
  C   C38       1.0  0.439401352632266  0.14737964514182872  0.8916574765375588  1.0000
  C   C39       1.0  0.4394013519339501  0.3526203545880021  0.3916574760417573  1.0000
  C   C40       1.0  0.5605986483313028  0.8526203547295979  0.10834252364917073  1.0000
  C   C41       1.0  0.19220220113449327  0.6160443888343299  0.44466201878734857  1.0000
  C   C42       1.0  0.8077978000862479  0.11604438869273406  0.05533798171071589  1.0000
  C   C43       1.0  0.8077977998290755  0.38395561144886176  0.555337981399381  1.0000
  C   C44       1.0  0.19220219953312248  0.8839556111786926  0.9446620184779907  1.0000
  C   C45       1.0  0.27142751331595694  0.6030534851560019  0.6215427265843202  1.0000
  C   C46       1.0  0.7285724873904394  0.10305348501440606  0.8784572732910743  1.0000
  C   C47       1.0  0.7285724876476118  0.3969465151271898  0.37845727360240927  1.0000
  C   C48       1.0  0.27142751357312933  0.8969465148570206  0.12154272689565518  1.0000
  C   C49       1.0  0.9162261506890126  0.5786140800462252  0.46335630808326145  1.0000
  C   C50       1.0  0.08377384823204198  0.07861407990462929  0.036643691609643744  1.0000
  C   C51       1.0  0.08377384893035779  0.4213859202369665  0.5366436921054452  1.0000
  C   C52       1.0  0.9162261504318402  0.9213859199667973  0.9633563077719265  1.0000
  C   C53       1.0  0.060710808722296776  0.5820495308822701  0.5755543397125149  1.0000
  C   C54       1.0  0.9392891929395878  0.0820495311524392  0.924445660970016  1.0000
  C   C55       1.0  0.9392891922412719  0.4179504689891566  0.4244456604742146  1.0000
  C   C56       1.0  0.06071080802398098  0.9179504691307525  0.07555433921671348  1.0000
  C   C57       1.0  0.9805993099225547  0.5945231312600566  0.39706094295587113  1.0000
  C   C58       1.0  0.019400689953987953  0.09452313111846082  0.10293905754417043  1.0000
  C   C59       1.0  0.01940068969681561  0.405476869023135  0.6029390572328355  1.0000
  C   C60       1.0  0.9805993096653824  0.9054768687529658  0.8970609426445362  1.0000
  C   C61       1.0  0.9999532070733946  0.4536019581627916  0.9426129325542845  1.0000
  C   C62       1.0  4.679228880346022e-05  0.9536019583043874  0.5573870673230872  1.0000
  C   C63       1.0  4.6792545975818106e-05  0.546398041708635  0.05738706763442217  1.0000
  C   C64       1.0  0.9999532073305669  0.046398041978804275  0.4426129328656194  1.0000
  C   C65       1.0  0.9061902872402197  0.548622759624746  0.9470192091241361  1.0000
  C   C66       1.0  0.0938097121219783  0.048622759483150126  0.5529807907532356  1.0000
  C   C67       1.0  0.09380971237915062  0.4513772402466807  0.05298079106457051  1.0000
  C   C68       1.0  0.9061902874973919  0.9513772403882766  0.44701920943547097  1.0000
  C   C69       1.0  0.9072794151198409  0.503569118968051  0.8905237476437301  1.0000
  C   C70       1.0  0.0927205865420439  0.0035691192382201614  0.6094762530388009  1.0000
  C   C71       1.0  0.09272058584372798  0.49643088090337567  0.10947625254299949  1.0000
  C   C72       1.0  0.9072794144215249  0.9964308810449716  0.3905237471479286  1.0000
  N   N1        1.0  0.5646195717659178  0.7015175815779894  0.6558096068434657  1.0000
  N   N2        1.0  0.4353804289404786  0.20151758184815863  0.8441903930319289  1.0000
  N   N3        1.0  0.4353804291976511  0.29848241829343725  0.34419039334326385  1.0000
  N   N4        1.0  0.5646195720230901  0.7984824184350331  0.15580960715480063  1.0000
  F   F1        1.0  0.4949732142916307  0.9161440937881242  0.6187989525649457  1.0000
  F   F2        1.0  0.5050267864147657  0.41614409364652843  0.8812010473104489  1.0000
  F   F3        1.0  0.5050267866719381  0.08385590608330244  0.38120104762178386  1.0000
  F   F4        1.0  0.49497321454880305  0.5838559062248984  0.11879895287628058  1.0000
  F   F5        1.0  0.6662613392804572  0.013134061617586425  0.7130427133933231  1.0000
  F   F6        1.0  0.33373866142593944  0.5131340613474172  0.7869572864820715  1.0000
  F   F7        1.0  0.3337386616831116  0.9868659386656052  0.2869572867934064  1.0000
  F   F8        1.0  0.6662613395376296  0.48686593852400945  0.2130427137046581  1.0000
  F   F9        1.0  0.808661422918899  0.5958007080575567  0.8910821918690911  1.0000
  F   F10       1.0  0.1913385773987871  0.09580070791596086  0.6089178088154168  1.0000
  F   F11       1.0  0.19133857670047127  0.40419929222563505  0.1089178083196154  1.0000
  F   F12       1.0  0.8086614222205832  0.9041992919554658  0.3910821913732898  1.0000
  F   F13       1.0  0.8173733483499217  0.5094331188261605  0.7838922117649376  1.0000
  F   F14       1.0  0.18262665101227632  0.009433118684564583  0.716107788112434  1.0000
  F   F15       1.0  0.18262665165815892  0.4905668810452662  0.21610778761465552  1.0000
  F   F16       1.0  0.8173733486070939  0.9905668811868621  0.2838922120762726  1.0000
  Br  Br1       1.0  0.6227988854684605  0.5535539494346534  0.4006364249055422  1.0000
  Br  Br2       1.0  0.3772011147967924  0.05355394929305751  0.09936357478538589  1.0000
  Br  Br3       1.0  0.3772011141509099  0.44644605084853833  0.5993635752831644  1.0000
  Br  Br4       1.0  0.6227988852112882  0.9464460505783692  0.9006364245942072  1.0000
  I   I1        1.0  0.28525924452373536  0.8699726333454298  0.3739493039448248  1.0000
  I   I2        1.0  0.7147407557415175  0.36997263320383394  0.12605069574610325  1.0000
  I   I3        1.0  0.7147407564398334  0.13002736693776187  0.6260506962419047  1.0000
  I   I4        1.0  0.28525924522205137  0.6300273666675927  0.8739493044406264  1.0000
  I   I5        1.0  0.11064919898623964  0.7463205845614805  0.2568271718357391  1.0000
  I   I6        1.0  0.8893508012790131  0.24632058441988464  0.24317282785518896  1.0000
  I   I7        1.0  0.8893507996776424  0.2536794157217112  0.743172827545831  1.0000
  I   I8        1.0  0.1106491996845555  0.753679415451542  0.7568271723315405  1.0000
  I   I9        1.0  0.8368985220780578  0.7604095552451339  0.9782340685304323  1.0000
  I   I10       1.0  0.16310147728414012  0.26040955551530304  0.5217659313469393  1.0000
  I   I11       1.0  0.16310147754131246  0.2395904446262928  0.02176593165827426  1.0000
  I   I12       1.0  0.8368985223352303  0.7395904447678887  0.4782340688417673  1.0000
  I   I13       1.0  0.9812557198845745  0.38191084761940236  0.8590705829491091  1.0000
  I   I14       1.0  0.018744280433111927  0.8819108477609983  0.640929417735399  1.0000
  I   I15       1.0  0.018744279734795942  0.6180891522520243  0.14092941723959754  1.0000
  I   I16       1.0  0.9812557191862584  0.1180891521104284  0.3590705824533076  1.0000
