data_image0
_chemical_formula_structural       H16C20N2O6Cl4
_chemical_formula_sum              "H16 C20 N2 O6 Cl4"
_cell_length_a       7.503190443937979
_cell_length_b       9.169119744646945
_cell_length_c       9.392193363566967
_cell_angle_alpha    62.408509224857795
_cell_angle_beta     77.62008145559604
_cell_angle_gamma    67.42314274856305

_space_group_name_H-M_alt    "P 1"
_space_group_IT_number       1

loop_
  _space_group_symop_operation_xyz
  'x, y, z'

loop_
  _atom_site_type_symbol
  _atom_site_label
  _atom_site_symmetry_multiplicity
  _atom_site_fract_x
  _atom_site_fract_y
  _atom_site_fract_z
  _atom_site_occupancy
  H   H1        1.0  0.6521525992602943  0.15406765707157116  0.6398076891120068  1.0000
  H   H2        1.0  0.3478474007134652  0.8459323428651966  0.3601923111259787  1.0000
  H   H3        1.0  0.9059066235761951  0.19337425820804333  0.22197255155182236  1.0000
  H   H4        1.0  0.09409337639756432  0.8066257417287246  0.7780274486861631  1.0000
  H   H5        1.0  0.5558029308191376  0.5435683442118638  0.8545084622281305  1.0000
  H   H6        1.0  0.444197069154622  0.456431655724904  0.14549153800985504  1.0000
  H   H7        1.0  0.8425047927747218  0.7919222930509093  0.40561437420279156  1.0000
  H   H8        1.0  0.15749520719903765  0.20807770688585864  0.5943856260351938  1.0000
  H   H9        1.0  0.16513367189311115  0.5297935938260941  0.7398232087517324  1.0000
  H   H10       1.0  0.8348663280806482  0.4702064061106737  0.2601767914862531  1.0000
  H   H11       1.0  0.03357936638343878  0.7759682967526152  0.13272331146414476  1.0000
  H   H12       1.0  0.9664206335903208  0.22403170318415266  0.8672766887738407  1.0000
  H   H13       1.0  0.785453340832447  0.7903809103527699  0.1669157443539105  1.0000
  H   H14       1.0  0.21454665914131224  0.2096190895839979  0.8330842558840751  1.0000
  H   H15       1.0  0.8719214842324393  0.9108786082540894  0.9725088038730222  1.0000
  H   H16       1.0  0.12807851574131995  0.0891213916826786  0.02749119636496322  1.0000
  C   C1        1.0  0.5735715466979097  0.7906032710962375  0.8080158027044542  1.0000
  C   C2        1.0  0.4264284532758496  0.20939672884053057  0.19198419753353124  1.0000
  C   C3        1.0  0.7322034586292857  0.9314934887058104  0.5542479573085313  1.0000
  C   C4        1.0  0.2677965413444735  0.06850651123095759  0.44575204292945425  1.0000
  C   C5        1.0  0.7894470581171804  0.08381843288907834  0.4376531281247027  1.0000
  C   C6        1.0  0.21055294185657908  0.9161815670476895  0.5623468721132827  1.0000
  C   C7        1.0  0.6344270227070509  0.9342111331741298  0.7004554523503436  1.0000
  C   C8        1.0  0.36557297726670845  0.06578886676263805  0.29954454788764184  1.0000
  C   C9        1.0  0.6067221664171383  0.6515881174218816  0.771398172540003  1.0000
  C   C10       1.0  0.39327783355662094  0.3484118825148864  0.2286018276979825  1.0000
  C   C11       1.0  0.7674781003576494  0.7901955879490522  0.5185622292062191  1.0000
  C   C12       1.0  0.2325218996161101  0.2098044119877158  0.48143777103176644  1.0000
  C   C13       1.0  0.7040197235257359  0.6521666184463144  0.6263131282013784  1.0000
  C   C14       1.0  0.2959802764480235  0.34783338149045356  0.3736868720366071  1.0000
  C   C15       1.0  0.9553918688225888  0.6369541260176589  0.03934592548386839  1.0000
  C   C16       1.0  0.04460813115117057  0.36304587391910903  0.9606540747541171  1.0000
  C   C17       1.0  0.0913245531089253  0.5136199291465611  0.856976167434714  1.0000
  C   C18       1.0  0.9086754469419424  0.4863800713383132  0.14302383160077736  1.0000
  C   C19       1.0  0.9087082465296248  0.7870593194878873  0.08009831230503113  1.0000
  C   C20       1.0  0.0912917534441346  0.2129406804488806  0.9199016879329543  1.0000
  N   N1        1.0  0.046796256076691585  0.6462203547566985  0.8968651539249725  1.0000
  N   N2        1.0  0.953203743974176  0.3537796457281756  0.10313484511051903  1.0000
  O   O1        1.0  0.5975910244038929  0.06823978502786221  0.7372418366039334  1.0000
  O   O2        1.0  0.40240897556986654  0.9317602149089056  0.26275816363405197  1.0000
  O   O3        1.0  0.8752362600744267  0.07512126173577063  0.30304896741794113  1.0000
  O   O4        1.0  0.12476373997644088  0.9248787387491033  0.6969510316175503  1.0000
  O   O5        1.0  0.7558700655012744  0.21261392163391496  0.4672784795296478  1.0000
  O   O6        1.0  0.244129934472485  0.7873860783028531  0.5327215207083377  1.0000
  Cl  Cl1       1.0  0.45513304564364826  0.7905467812482264  0.9870376863549192  1.0000
  Cl  Cl2       1.0  0.5448669543301111  0.20945321868854133  0.012962313883066264  1.0000
  Cl  Cl3       1.0  0.739276917597641  0.4806577074971591  0.5796681996691281  1.0000
  Cl  Cl4       1.0  0.26072308237611835  0.5193422924396088  0.4203318005688574  1.0000
