data_image0
_chemical_formula_structural       H56C56N8O12Cl8
_chemical_formula_sum              "H56 C56 N8 O12 Cl8"
_cell_length_a       7.403517465312527
_cell_length_b       12.612887793308593
_cell_length_c       15.423992246890249
_cell_angle_alpha    90.0
_cell_angle_beta     102.43103172630681
_cell_angle_gamma    90.0

_space_group_name_H-M_alt    "P 1"
_space_group_IT_number       1

loop_
  _space_group_symop_operation_xyz
  'x, y, z'

loop_
  _atom_site_type_symbol
  _atom_site_label
  _atom_site_symmetry_multiplicity
  _atom_site_fract_x
  _atom_site_fract_y
  _atom_site_fract_z
  _atom_site_occupancy
  H   H1        1.0  0.6354639660283119  0.9530874623634958  0.43579137738411083  1.0000
  H   H2        1.0  0.8645360339041149  0.45308746209823514  0.0642086226333767  1.0000
  H   H3        1.0  0.36453603344652563  0.04691253737418571  0.5642086224970233  1.0000
  H   H4        1.0  0.1354639658816226  0.5469125376394465  0.935791377911631  1.0000
  H   H5        1.0  0.9386575853929118  0.9483107743450737  0.6899656678029458  1.0000
  H   H6        1.0  0.5613424154779857  0.448310774079813  0.8100343326761537  1.0000
  H   H7        1.0  0.06134241439282587  0.05168922618544768  0.3100343327420621  1.0000
  H   H8        1.0  0.4386575853445929  0.5516892256578686  0.189965667198505  1.0000
  H   H9        1.0  0.24063540994689964  0.33111648485572315  0.7333644824169142  1.0000
  H   H10       1.0  0.2593645907289897  0.8311164843281439  0.7666355179852647  1.0000
  H   H11       1.0  0.7593645895279377  0.6688835156747983  0.26663551746421993  1.0000
  H   H12       1.0  0.7406354104044888  0.16888351540953758  0.23336448255326758  1.0000
  H   H13       1.0  0.8984720005227598  0.2031660688648532  0.49329700729297504  1.0000
  H   H14       1.0  0.6015280007574081  0.7031660691301139  0.00670299271803691  1.0000
  H   H15       1.0  0.10152800061071883  0.7968339308728283  0.5067029932455572  1.0000
  H   H16       1.0  0.39847200006517053  0.29683393140040754  0.9932970071566216  1.0000
  H   H17       1.0  0.1095198460786288  0.7079542033773748  0.007690854370668473  1.0000
  H   H18       1.0  0.39048015365878996  0.20795420390495398  0.49230914556989863  1.0000
  H   H19       1.0  0.8904801533962087  0.29204579636030675  0.9923091455104657  1.0000
  H   H20       1.0  0.6095198458160476  0.7920457966255675  0.5076908543112355  1.0000
  H   H21       1.0  0.07022375387125168  0.43874095454458845  0.8182349861119325  1.0000
  H   H22       1.0  0.4297762464937377  0.9387409548098491  0.6817650136263729  1.0000
  H   H23       1.0  0.9297762469513269  0.5612590451930931  0.1817650137627262  1.0000
  H   H24       1.0  0.5702237529810998  0.06125904572067224  0.3182349862547613  1.0000
  H   H25       1.0  0.039161761552167024  0.5003924226891425  0.7117759376837504  1.0000
  H   H26       1.0  0.46083823912372235  0.00039242321672169824  0.7882240627184286  1.0000
  H   H27       1.0  0.9608382392704117  0.499607577048539  0.2882240621909083  1.0000
  H   H28       1.0  0.5391617606620152  0.9996075773137997  0.21177593782657925  1.0000
  H   H29       1.0  0.8456210558589152  0.4520669479851366  0.7499877888988492  1.0000
  H   H30       1.0  0.654378944701082  0.9520669482503973  0.7500122109163764  1.0000
  H   H31       1.0  0.15437894361592236  0.5479330517525449  0.25001221098228493  1.0000
  H   H32       1.0  0.3456210561214964  0.04793305148728426  0.24998778895828214  1.0000
  H   H33       1.0  0.6994802104642628  0.7472243402498182  0.6471308782939645  1.0000
  H   H34       1.0  0.8005197900957347  0.2472243407773974  0.8528691215212612  1.0000
  H   H35       1.0  0.3005197890105749  0.25277565948786324  0.35286912158716965  1.0000
  H   H36       1.0  0.19948021072684383  0.752775659753124  0.1471308783533974  1.0000
  H   H37       1.0  0.6623067696842461  0.608664149384792  0.6629388493751515  1.0000
  H   H38       1.0  0.8376932295280102  0.10866414911953122  0.8370611504465498  1.0000
  H   H39       1.0  0.33769322979059135  0.39133585035288965  0.3370611505059827  1.0000
  H   H40       1.0  0.16230676994682738  0.8913358506181503  0.1629388494345844  1.0000
  H   H41       1.0  0.8644378837664579  0.6509191998326953  0.629686717408948  1.0000
  H   H42       1.0  0.6355621171044393  0.15091919956743463  0.8703132830701513  1.0000
  H   H43       1.0  0.13556211736702067  0.34908080069782604  0.37031328312958434  1.0000
  H   H44       1.0  0.3644378823703981  0.8490808001702469  0.12968671681098276  1.0000
  H   H45       1.0  0.9894216517504466  0.9533497702547749  0.9011354957166706  1.0000
  H   H46       1.0  0.5105783491204506  0.45334976998951404  0.5988645047624287  1.0000
  H   H47       1.0  0.010578349383031913  0.04665023027574666  0.09886450482186168  1.0000
  H   H48       1.0  0.4894216503543869  0.5466502297481675  0.40113549511870544  1.0000
  H   H49       1.0  0.9884188793208757  0.8922235149011815  0.0052668605651066125  1.0000
  H   H50       1.0  0.511581120611551  0.3922235146359208  0.4947331394523809  1.0000
  H   H51       1.0  0.011581121501702877  0.10777648562933989  0.994733139309552  1.0000
  H   H52       1.0  0.4884188788632865  0.6077764851017607  0.5052668604287532  1.0000
  H   H53       1.0  0.776483268439644  0.9164434227451302  0.9280166736232869  1.0000
  H   H54       1.0  0.7235167307726124  0.4164434232727094  0.5719833261984143  1.0000
  H   H55       1.0  0.22351673103519357  0.08355657699255131  0.07198332625784727  1.0000
  H   H56       1.0  0.2764832687022252  0.5835565772578121  0.42801667368271984  1.0000
  C   C1        1.0  0.03696308382548543  0.08605472416680239  0.6968474897738334  1.0000
  C   C2        1.0  0.46303691550266285  0.5860547244320631  0.8031525106348211  1.0000
  C   C3        1.0  0.9630369156493521  0.9139452755708792  0.3031525101073008  1.0000
  C   C4        1.0  0.5369630842830747  0.4139452753056185  0.19684748991018672  1.0000
  C   C5        1.0  0.8320685904923361  0.013716233969177215  0.557930180398321  1.0000
  C   C6        1.0  0.6679314090308203  0.5137162342344379  0.9420698200872539  1.0000
  C   C7        1.0  0.16793140929340153  0.9862837657685043  0.44206982014668694  1.0000
  C   C8        1.0  0.33206859075491724  0.4862837655032436  0.05793018045775387  1.0000
  C   C9        1.0  0.07147341870709603  0.27737469066013787  0.6086780407538218  1.0000
  C   C10       1.0  0.42852658165789337  0.7773746901325588  0.8913219589844835  1.0000
  C   C11       1.0  0.9285265807677415  0.7226253098703835  0.3913219591273123  1.0000
  C   C12       1.0  0.5714734191646852  0.2226253096051228  0.10867804089017515  1.0000
  C   C13       1.0  0.9487656139489388  0.10045303270454622  0.6065475154600259  1.0000
  C   C14       1.0  0.5512343866110587  0.6004530321769671  0.8934524843551999  1.0000
  C   C15       1.0  0.051234386873639945  0.8995469678259752  0.39345248441463276  1.0000
  C   C16       1.0  0.4487656128637788  0.39954696756071445  0.10654751552593437  1.0000
  C   C17       1.0  0.15798142535958942  0.26670106680760336  0.6982077111730042  1.0000
  C   C18       1.0  0.3420185753163  0.7667010670728641  0.8017922892291748  1.0000
  C   C19       1.0  0.8420185741152482  0.7332989329300781  0.30179228870812996  1.0000
  C   C20       1.0  0.6579814258171786  0.2332989326648175  0.1982077113093575  1.0000
  C   C21       1.0  0.13846703954445194  0.17199566471612415  0.7416464238977838  1.0000
  C   C22       1.0  0.3615329608205374  0.6719956641885451  0.7583535758405213  1.0000
  C   C23       1.0  0.8615329612781266  0.8280043358143973  0.2583535759768748  1.0000
  C   C24       1.0  0.6384670386543001  0.32800433554913655  0.2416464240406127  1.0000
  C   C25       1.0  0.9666991508696785  0.19573786038989116  0.5629593602760419  1.0000
  C   C26       1.0  0.5333008483425777  0.6957378606551519  0.9370406395456594  1.0000
  C   C27       1.0  0.03330084860515905  0.8042621393477903  0.43704063960509226  1.0000
  C   C28       1.0  0.46669915113225974  0.3042621390825297  0.06295936033547478  1.0000
  C   C29       1.0  0.03497824170899684  0.7046762839446867  0.9387461086182219  1.0000
  C   C30       1.0  0.4650217586559925  0.20467628367942606  0.5612538911200833  1.0000
  C   C31       1.0  0.9650217591135817  0.29532371579299477  0.061253891256436606  1.0000
  C   C32       1.0  0.534978240818845  0.7953237160582555  0.43874610876105086  1.0000
  C   C33       1.0  0.9620017401530656  0.5966063841455987  0.811784523279031  1.0000
  C   C34       1.0  0.5379982604069317  0.09660638388033807  0.6882154765361946  1.0000
  C   C35       1.0  0.037998260669512916  0.40339361559208275  0.1882154765956276  1.0000
  C   C36       1.0  0.46200174041564684  0.9033936158573435  0.3117845233384639  1.0000
  C   C37       1.0  0.9352654597126252  0.788037528191845  0.8924544143343386  1.0000
  C   C38       1.0  0.5647345411582722  0.2880375287194243  0.6075455861447607  1.0000
  C   C39       1.0  0.06473454007311236  0.21196247154583642  0.10754558621066924  1.0000
  C   C40       1.0  0.43526545966430646  0.7119624718110972  0.39245441372989787  1.0000
  C   C41       1.0  0.8618514010066504  0.6829621797293699  0.7660336620313518  1.0000
  C   C42       1.0  0.6381485982056061  0.18296218025694913  0.7339663377903495  1.0000
  C   C43       1.0  0.13814859846818722  0.3170378200083116  0.23396633784978235  1.0000
  C   C44       1.0  0.3618514012692315  0.8170378202735723  0.2660336620907847  1.0000
  C   C45       1.0  0.980678820102726  0.4912981802063978  0.7711221824184199  1.0000
  C   C46       1.0  0.5193211791095302  0.9912981804716585  0.7288778174032812  1.0000
  C   C47       1.0  0.01932117937211157  0.5087018195312838  0.22887781746271418  1.0000
  C   C48       1.0  0.4806788203653072  0.008701819266023076  0.27112218247785286  1.0000
  C   C49       1.0  0.7660345733072373  0.6721927744808699  0.6709266968269806  1.0000
  C   C50       1.0  0.73396542756366  0.17219277500844907  0.8290733036521187  1.0000
  C   C51       1.0  0.2339654275153412  0.32780722525681166  0.32907330304767796  1.0000
  C   C52       1.0  0.2660345722220776  0.8278072255220724  0.17092669689288906  1.0000
  C   C53       1.0  0.921711707014359  0.8932595845320342  0.9347015670569729  1.0000
  C   C54       1.0  0.5782882935456383  0.39325958426677354  0.5652984327582526  1.0000
  C   C55       1.0  0.07828829380821947  0.10674041520564731  0.06529843281768558  1.0000
  C   C56       1.0  0.4217117059291993  0.606740415470908  0.4347015671228815  1.0000
  N   N1        1.0  0.04559513876207985  0.6123972405508752  0.8969287730560583  1.0000
  N   N2        1.0  0.4544048602551684  0.11239724107845434  0.6030712266887223  1.0000
  N   N3        1.0  0.9544048607127577  0.38760275918680637  0.10307122682507573  1.0000
  N   N4        1.0  0.5455951392196692  0.887602759452067  0.3969287731924118  1.0000
  N   N5        1.0  0.8511229634569488  0.7759803464827777  0.8063181661772622  1.0000
  N   N6        1.0  0.6488770371030483  0.27598034621751705  0.6936818336379633  1.0000
  N   N7        1.0  0.14887703736562957  0.22401965404774365  0.19368183369739628  1.0000
  N   N8        1.0  0.3511229637195302  0.7240196535201645  0.3063181662366952  1.0000
  O   O1        1.0  0.7476088032109758  0.03353686062476579  0.47827010193928277  1.0000
  O   O2        1.0  0.752391198069192  0.5335368608900265  0.02172989807172917  1.0000
  O   O3        1.0  0.25239119761160284  0.9664631391129157  0.5217298979353758  1.0000
  O   O4        1.0  0.2476088030642865  0.4664631396404949  0.9782701024668031  1.0000
  O   O5        1.0  0.022716736396886223  0.9942946132172229  0.7389541018183776  1.0000
  O   O6        1.0  0.4772832642790031  0.4942946137448021  0.7610458985838012  1.0000
  O   O7        1.0  0.9772832647365923  0.0057053865204586265  0.2610458987201546  1.0000
  O   O8        1.0  0.5227167365435754  0.5057053867857193  0.23895410129085734  1.0000
  O   O9        1.0  0.8204850856761945  0.9267411905623392  0.5988567818816772  1.0000
  O   O10       1.0  0.6795149135360616  0.4267411910899183  0.9011432179400238  1.0000
  O   O11       1.0  0.17951491379864293  0.07325880917534242  0.4011432179994568  1.0000
  O   O12       1.0  0.3204850859387759  0.5732588094406031  0.09885678194111029  1.0000
  Cl  Cl1       1.0  0.09564763856561692  0.3952954003638312  0.5539634757703967  1.0000
  Cl  Cl2       1.0  0.40435236076253134  0.895295400629092  0.9460365246382576  1.0000
  Cl  Cl3       1.0  0.9043523609092206  0.6047045993738503  0.44603652411073735  1.0000
  Cl  Cl4       1.0  0.595647639023206  0.10470459910858963  0.05396347590675017  1.0000
  Cl  Cl5       1.0  0.24018528569881367  0.15906970971900664  0.8532159401074697  1.0000
  Cl  Cl6       1.0  0.25981471497707564  0.6590697099842674  0.6467840602947093  1.0000
  Cl  Cl7       1.0  0.7598147154346648  0.8409302900186748  0.14678406043106257  1.0000
  Cl  Cl8       1.0  0.7401852844977619  0.3409302905462541  0.35321593958642494  1.0000
