data_image0
_chemical_formula_structural       H20C22N2O4S8
_chemical_formula_sum              "H20 C22 N2 O4 S8"
_cell_length_a       6.694171487950177
_cell_length_b       9.190491315017457
_cell_length_c       10.944078995759508
_cell_angle_alpha    91.70269175337285
_cell_angle_beta     93.36014469188832
_cell_angle_gamma    108.9475567196689

_space_group_name_H-M_alt    "P 1"
_space_group_IT_number       1

loop_
  _space_group_symop_operation_xyz
  'x, y, z'

loop_
  _atom_site_type_symbol
  _atom_site_label
  _atom_site_symmetry_multiplicity
  _atom_site_fract_x
  _atom_site_fract_y
  _atom_site_fract_z
  _atom_site_occupancy
  H   H1        1.0  0.9233587389906664  0.2771215880414026  0.47502040845938753  1.0000
  H   H2        1.0  0.07664126005029157  0.7228784113757407  0.5249795910709614  1.0000
  H   H3        1.0  0.9036319191715356  0.23043620745051188  0.3147594275369344  1.0000
  H   H4        1.0  0.09636808037000939  0.7695637931269627  0.6852405729472614  1.0000
  H   H5        1.0  0.7160726629189381  0.1134900009436062  0.40922686011125925  1.0000
  H   H6        1.0  0.2839273361045617  0.8865099984819479  0.5907731403322933  1.0000
  H   H7        1.0  0.35168873021776037  0.9737718631727463  0.12464710242907599  1.0000
  H   H8        1.0  0.6483112703020518  0.02622813625292721  0.8753528980810938  1.0000
  H   H9        1.0  0.7599064123036054  0.056748996039192375  0.10318719354698686  1.0000
  H   H10       1.0  0.24009358673735245  0.9432510033779508  0.8968128059833621  1.0000
  H   H11       1.0  0.18063289678885178  0.09432414090285568  0.34130380234101426  1.0000
  H   H12       1.0  0.8193671037484187  0.9056758585144071  0.6586961972559517  1.0000
  H   H13       1.0  0.24867534728911606  0.14644698137948806  0.5001435909800144  1.0000
  H   H14       1.0  0.7513246537661994  0.8535530191896952  0.499856408657595  1.0000
  H   H15       1.0  0.3944511668580336  0.05149822282442595  0.4165783060469286  1.0000
  H   H16       1.0  0.6055488321654665  0.9485017766011283  0.583421694396624  1.0000
  H   H17       1.0  0.5543941812740012  0.27240948902513523  0.09659511277273977  1.0000
  H   H18       1.0  0.4456058182675438  0.7275905115523392  0.903404887711456  1.0000
  H   H19       1.0  0.13746297722995693  0.5140346658804492  0.9619762211904137  1.0000
  H   H20       1.0  0.8625370238253586  0.485965334688734  0.03802377844719576  1.0000
  C   C1        1.0  0.5804820939192891  0.5733382725358082  0.31474893871520143  1.0000
  C   C2        1.0  0.41951790711856857  0.42666172804178604  0.6852510618356116  1.0000
  C   C3        1.0  0.5790117392835028  0.7102440982689803  0.2693107514326527  1.0000
  C   C4        1.0  0.42098826177181264  0.28975590230020287  0.7306892482049566  1.0000
  C   C5        1.0  0.8113095132591813  0.23231487204170698  0.39429666743906183  1.0000
  C   C6        1.0  0.18869048779613418  0.7676851285274763  0.6057033321985476  1.0000
  C   C7        1.0  0.4622325949909329  0.289956254821971  0.3794647895332771  1.0000
  C   C8        1.0  0.5377674060643827  0.7100437457472123  0.6205352101043322  1.0000
  C   C9        1.0  0.4561456856080651  0.9142153831554799  0.16228041913801908  1.0000
  C   C10       1.0  0.543854313950938  0.08578461741358387  0.8377195804329731  1.0000
  C   C11       1.0  0.6749234817542088  0.3305853915390361  0.372939239348846  1.0000
  C   C12       1.0  0.32507651778733626  0.6694146090384385  0.6270607611353498  1.0000
  C   C13       1.0  0.6661208026182381  0.9572042608378876  0.15031391024534257  1.0000
  C   C14       1.0  0.3338791969233069  0.042795739739586856  0.8496860902388533  1.0000
  C   C15       1.0  0.31360327327573384  0.13762248021753376  0.4111005260979747  1.0000
  C   C16       1.0  0.6863967277621237  0.8623775203600603  0.5888994744528383  1.0000
  C   C17       1.0  0.531892368132875  0.3713018167931811  0.05351760923493533  1.0000
  C   C18       1.0  0.46810763140867007  0.6286981837842934  0.9464823912492606  1.0000
  C   C19       1.0  0.3278308407236988  0.3808943306424715  0.032624918420117076  1.0000
  C   C20       1.0  0.6721691582998012  0.6191056687830826  0.9673750820234355  1.0000
  C   C21       1.0  0.2960641710580424  0.5090603539509916  0.9791944687867246  1.0000
  C   C22       1.0  0.7039358294792282  0.49093964546627133  0.020805530810241623  1.0000
  N   N1        1.0  0.14837072129905085  0.25771633813060085  0.06706188346598639  1.0000
  N   N2        1.0  0.8516292777244492  0.7422836612949533  0.9329381169775662  1.0000
  O   O1        1.0  0.17729038686377677  0.13946378992392755  0.10931109876335514  1.0000
  O   O2        1.0  0.8227096136734937  0.8605362094933353  0.8906889008336111  1.0000
  O   O3        1.0  0.9674718692747264  0.2719118361209565  0.05434218279611342  1.0000
  O   O4        1.0  0.0325281317631312  0.7280881644566377  0.9456578177546996  1.0000
  S   S1        1.0  0.34924321115827733  0.43413037058846843  0.3524004751229541  1.0000
  S   S2        1.0  0.6507567878652227  0.5658696288370857  0.6475995253205985  1.0000
  S   S3        1.0  0.8072218566119219  0.5219540155157932  0.3399597815462186  1.0000
  S   S4        1.0  0.19277814292962325  0.47804598506168133  0.6600402189379773  1.0000
  S   S5        1.0  0.3461784675355053  0.7576577215383843  0.2500425611117932  1.0000
  S   S6        1.0  0.6538215315054527  0.24234227787875895  0.7499574384185558  1.0000
  S   S7        1.0  0.8046774397034913  0.8500124251658442  0.22282414769483036  1.0000
  S   S8        1.0  0.19532256081632116  0.14998757425982948  0.7771758528153394  1.0000
