data_image0
_chemical_formula_structural       H56C36N20O8
_chemical_formula_sum              "H56 C36 N20 O8"
_cell_length_a       8.031264231719037
_cell_length_b       7.026056089863556
_cell_length_c       20.377528288907392
_cell_angle_alpha    90.0
_cell_angle_beta     90.0
_cell_angle_gamma    90.0

_space_group_name_H-M_alt    "P 1"
_space_group_IT_number       1

loop_
  _space_group_symop_operation_xyz
  'x, y, z'

loop_
  _atom_site_type_symbol
  _atom_site_label
  _atom_site_symmetry_multiplicity
  _atom_site_fract_x
  _atom_site_fract_y
  _atom_site_fract_z
  _atom_site_occupancy
  H   H1        1.0  0.5615949780592137  0.7500000003703831  0.6220822741735815  1.0000
  H   H2        1.0  0.9384050222422886  0.24999999964903652  0.12208227390140397  1.0000
  H   H3        1.0  0.4384050217267432  0.24999999964903652  0.37791772588003686  1.0000
  H   H4        1.0  0.06159497754366824  0.7500000003703831  0.8779177256614777  1.0000
  H   H5        1.0  0.8310567723123441  0.7500000003703831  0.5609321065804728  1.0000
  H   H6        1.0  0.6689432279891584  0.24999999964903652  0.0609321063082953  1.0000
  H   H7        1.0  0.16894322747361287  0.24999999964903652  0.43906789347314557  1.0000
  H   H8        1.0  0.33105677304193254  0.7500000003703831  0.939067893745323  1.0000
  H   H9        1.0  0.8322294133472143  0.7500000003703831  0.43851835479302526  1.0000
  H   H10       1.0  0.667770586954288  0.24999999964903652  0.9385183550652028  1.0000
  H   H11       1.0  0.16777058643874257  0.24999999964903652  0.5614816452605931  1.0000
  H   H12       1.0  0.3322294140768029  0.7500000003703831  0.061481644988415594  1.0000
  H   H13       1.0  0.4932127216479527  0.624403453927621  0.3392414095561861  1.0000
  H   H14       1.0  0.006787278867592732  0.37559654609179866  0.8392414093376269  1.0000
  H   H15       1.0  0.5067872793831382  0.12440345320627436  0.6607585904974322  1.0000
  H   H16       1.0  0.9932127209183642  0.8755965468131454  0.1607585907159914  1.0000
  H   H17       1.0  0.5067872793831382  0.37559654609179866  0.6607585904974322  1.0000
  H   H18       1.0  0.9932127209183642  0.624403453927621  0.1607585907159914  1.0000
  H   H19       1.0  0.4932127216479527  0.8755965468131454  0.3392414095561861  1.0000
  H   H20       1.0  0.006787278867592732  0.12440345320627436  0.8392414093376269  1.0000
  H   H21       1.0  0.6864588788183791  0.7500000003703831  0.3374800948623163  1.0000
  H   H22       1.0  0.8135411214831233  0.24999999964903652  0.8374800946437571  1.0000
  H   H23       1.0  0.31354112096757786  0.24999999964903652  0.662519905191302  1.0000
  H   H24       1.0  0.18645887830283356  0.7500000003703831  0.1625199054098612  1.0000
  H   H25       1.0  0.22051554635762813  0.5935372500109068  0.4146793865377616  1.0000
  H   H26       1.0  0.2794844529127833  0.40646275000851284  0.9146793868099391  1.0000
  H   H27       1.0  0.7794844534283287  0.09353724928956018  0.5853206135158567  1.0000
  H   H28       1.0  0.7205155468731735  0.9064627507298594  0.08532061324367923  1.0000
  H   H29       1.0  0.7794844534283287  0.40646275000851284  0.5853206135158567  1.0000
  H   H30       1.0  0.7205155468731735  0.5935372500109068  0.08532061324367923  1.0000
  H   H31       1.0  0.22051554635762813  0.9064627507298594  0.4146793865377616  1.0000
  H   H32       1.0  0.2794844529127833  0.09353724928956018  0.9146793868099391  1.0000
  H   H33       1.0  0.09316789093363462  0.46075094172253706  0.359515505812742  1.0000
  H   H34       1.0  0.4068321095819108  0.5392490582968825  0.8595155060849196  1.0000
  H   H35       1.0  0.9068321100974562  0.9607509424438836  0.6404844942408763  1.0000
  H   H36       1.0  0.5931678902040461  0.03924905757553599  0.14048449396869883  1.0000
  H   H37       1.0  0.9068321100974562  0.5392490582968825  0.6404844942408763  1.0000
  H   H38       1.0  0.5931678902040461  0.46075094172253706  0.14048449396869883  1.0000
  H   H39       1.0  0.09316789093363462  0.03924905757553599  0.359515505812742  1.0000
  H   H40       1.0  0.4068321095819108  0.9607509424438836  0.8595155060849196  1.0000
  H   H41       1.0  0.7309920967129477  0.407547644564222  0.2338935842672583  1.0000
  H   H42       1.0  0.7690079035885546  0.5924523554551976  0.7338935845394358  1.0000
  H   H43       1.0  0.26900790307300915  0.907547643862295  0.7661064157863601  1.0000
  H   H44       1.0  0.2309920961974023  0.09245235615712463  0.26610641551418257  1.0000
  H   H45       1.0  0.26900790307300915  0.5924523554551976  0.7661064157863601  1.0000
  H   H46       1.0  0.2309920961974023  0.407547644564222  0.26610641551418257  1.0000
  H   H47       1.0  0.7309920967129477  0.09245235615712463  0.2338935842672583  1.0000
  H   H48       1.0  0.7690079035885546  0.907547643862295  0.7338935845394358  1.0000
  H   H49       1.0  0.8895763573290859  0.5404531249726674  0.274788567122153  1.0000
  H   H50       1.0  0.6104236429724165  0.4595468750467522  0.7747885669035939  1.0000
  H   H51       1.0  0.11042364245687104  0.04045312425132085  0.7252114329314654  1.0000
  H   H52       1.0  0.3895763568135404  0.9595468757680988  0.22521143315002448  1.0000
  H   H53       1.0  0.11042364245687104  0.4595468750467522  0.7252114329314654  1.0000
  H   H54       1.0  0.3895763568135404  0.5404531249726674  0.22521143315002448  1.0000
  H   H55       1.0  0.8895763573290859  0.9595468757680988  0.274788567122153  1.0000
  H   H56       1.0  0.6104236429724165  0.04045312425132085  0.7747885669035939  1.0000
  C   C1        1.0  0.4136508069152295  0.7500000003703831  0.5289725052604974  1.0000
  C   C2        1.0  0.08634919360031597  0.24999999964903652  0.028972504988319936  1.0000
  C   C3        1.0  0.5863491941158614  0.24999999964903652  0.4710274947931209  1.0000
  C   C4        1.0  0.9136508061856409  0.7500000003703831  0.9710274950652984  1.0000
  C   C5        1.0  0.5656110767790905  0.7500000003703831  0.5685600267971074  1.0000
  C   C6        1.0  0.9343889235224118  0.24999999964903652  0.0685600265249299  1.0000
  C   C7        1.0  0.43438892425200026  0.24999999964903652  0.4314399732565109  1.0000
  C   C8        1.0  0.06561107626354513  0.7500000003703831  0.9314399730379518  1.0000
  C   C9        1.0  0.7137067010399074  0.7500000003703831  0.534113835873054  1.0000
  C   C10       1.0  0.7862932992615949  0.24999999964903652  0.03411383560087665  1.0000
  C   C11       1.0  0.2862932999911835  0.24999999964903652  0.46588616418056417  1.0000
  C   C12       1.0  0.21370670052436194  0.7500000003703831  0.9658861644527417  1.0000
  C   C13       1.0  0.7154065068993739  0.7500000003703831  0.4653354300659606  1.0000
  C   C14       1.0  0.7845934934021285  0.24999999964903652  0.9653354303381382  1.0000
  C   C15       1.0  0.284593492886583  0.24999999964903652  0.5346645699876577  1.0000
  C   C16       1.0  0.21540650762896246  0.7500000003703831  0.03466456971548019  1.0000
  C   C17       1.0  0.5634589423826482  0.7500000003703831  0.4308859345212957  1.0000
  C   C18       1.0  0.9365410566737201  0.24999999964903652  0.9308859343027365  1.0000
  C   C19       1.0  0.43654105740330873  0.24999999964903652  0.5691140655323227  1.0000
  C   C20       1.0  0.06345894311223674  0.7500000003703831  0.06911406575088183  1.0000
  C   C21       1.0  0.28945982636439893  0.7500000003703831  0.574059280112388  1.0000
  C   C22       1.0  0.21054017290601257  0.24999999964903652  0.07405927984021059  1.0000
  C   C23       1.0  0.710540173421558  0.24999999964903652  0.42594071994123023  1.0000
  C   C24       1.0  0.7894598268799444  0.7500000003703831  0.9259407202134077  1.0000
  C   C25       1.0  0.5601821593954738  0.7500000003703831  0.3576876462474445  1.0000
  C   C26       1.0  0.9398178396608946  0.24999999964903652  0.8576876460288853  1.0000
  C   C27       1.0  0.4398178403904832  0.24999999964903652  0.6423123538061738  1.0000
  C   C28       1.0  0.06018216012506224  0.7500000003703831  0.14231235353399635  1.0000
  C   C29       1.0  0.06902893915636202  0.7500000003703831  0.3554950589342755  1.0000
  C   C30       1.0  0.4309710601140494  0.24999999964903652  0.8554950587157164  1.0000
  C   C31       1.0  0.9309710606295948  0.24999999964903652  0.6445049411193428  1.0000
  C   C32       1.0  0.5690289396719075  0.7500000003703831  0.1445049408471653  1.0000
  C   C33       1.0  0.9163854989271969  0.24999999964903652  0.2745658350058899  1.0000
  C   C34       1.0  0.5836145001291715  0.7500000003703831  0.7745658347873307  1.0000
  C   C35       1.0  0.08361450085876002  0.7500000003703831  0.7254341650477285  1.0000
  C   C36       1.0  0.41638549965678545  0.24999999964903652  0.22543416526628762  1.0000
  N   N1        1.0  0.4156890750543038  0.7500000003703831  0.4613636500319681  1.0000
  N   N2        1.0  0.08431092546124166  0.24999999964903652  0.9613636503041456  1.0000
  N   N3        1.0  0.5843109247316531  0.24999999964903652  0.5386363500216502  1.0000
  N   N4        1.0  0.9156890743247152  0.7500000003703831  0.038636349749472707  1.0000
  N   N5        1.0  0.12167235466374896  0.5857556098843957  0.3832890039098449  1.0000
  N   N6        1.0  0.3783276446066625  0.4142443901350239  0.8832890041820225  1.0000
  N   N7        1.0  0.878327645122208  0.08575561058632267  0.6167109961437734  1.0000
  N   N8        1.0  0.6216723551792943  0.914244389433097  0.11671099587159595  1.0000
  N   N9        1.0  0.878327645122208  0.4142443901350239  0.6167109961437734  1.0000
  N   N10       1.0  0.6216723551792943  0.5857556098843957  0.11671099587159595  1.0000
  N   N11       1.0  0.12167235466374896  0.914244389433097  0.3832890039098449  1.0000
  N   N12       1.0  0.3783276446066625  0.08575561058632267  0.8832890041820225  1.0000
  N   N13       1.0  0.8459927831991785  0.41448433271140506  0.25497113321777576  1.0000
  N   N14       1.0  0.6540072171023238  0.5855156673080146  0.7549711334899533  1.0000
  N   N15       1.0  0.15400721783191237  0.914484332009478  0.7450288668358426  1.0000
  N   N16       1.0  0.34599278268363304  0.08551566800994156  0.2450288665636651  1.0000
  N   N17       1.0  0.15400721783191237  0.5855156673080146  0.7450288668358426  1.0000
  N   N18       1.0  0.34599278268363304  0.41448433271140506  0.2450288665636651  1.0000
  N   N19       1.0  0.8459927831991785  0.08551566800994156  0.25497113321777576  1.0000
  N   N20       1.0  0.6540072171023238  0.914484332009478  0.7549711334899533  1.0000
  O   O1        1.0  0.968338703050664  0.7500000003703831  0.30753010135244474  1.0000
  O   O2        1.0  0.5316612972508383  0.24999999964903652  0.8075301016246222  1.0000
  O   O3        1.0  0.031661296735292825  0.24999999964903652  0.6924698987011736  1.0000
  O   O4        1.0  0.4683387025351186  0.7500000003703831  0.1924698984289961  1.0000
  O   O5        1.0  0.051738931507058494  0.24999999964903652  0.30813804358294306  1.0000
  O   O6        1.0  0.44826106900848695  0.7500000003703831  0.8081380433643838  1.0000
  O   O7        1.0  0.9482610682788983  0.7500000003703831  0.6918619564706753  1.0000
  O   O8        1.0  0.55173893077747  0.24999999964903652  0.1918619561984978  1.0000
