data_image0
_chemical_formula_structural       H20C12N20O10S2
_chemical_formula_sum              "H20 C12 N20 O10 S2"
_cell_length_a       7.268489232528398
_cell_length_b       9.54796815396786
_cell_length_c       10.650818450266042
_cell_angle_alpha    76.18977715676874
_cell_angle_beta     74.91507103545591
_cell_angle_gamma    69.26388522124174

_space_group_name_H-M_alt    "P 1"
_space_group_IT_number       1

loop_
  _space_group_symop_operation_xyz
  'x, y, z'

loop_
  _atom_site_type_symbol
  _atom_site_label
  _atom_site_symmetry_multiplicity
  _atom_site_fract_x
  _atom_site_fract_y
  _atom_site_fract_z
  _atom_site_occupancy
  H   H1        1.0  0.6201737631908063  0.8191720129986526  0.0013637110230336402  1.0000
  H   H2        1.0  0.37982623590952125  0.18082798741503747  0.9986362892212586  1.0000
  H   H3        1.0  0.7386940747877688  0.9374875783283001  0.8726645356139259  1.0000
  H   H4        1.0  0.26130592619844034  0.0625124209435529  0.12733546453646735  1.0000
  H   H5        1.0  0.7437639755201265  0.7566985583021081  0.8455134825935248  1.0000
  H   H6        1.0  0.25623602546608265  0.2433014409697446  0.15448651755686865  1.0000
  H   H7        1.0  0.1916302384189218  0.8223887742134569  0.8485318301195934  1.0000
  H   H8        1.0  0.8083697621076317  0.17761122619742162  0.15146816893321494  1.0000
  H   H9        1.0  0.43782887030288087  0.6863836781886317  0.8607447336000608  1.0000
  H   H10       1.0  0.5621711302251727  0.3136163222181296  0.139255266392251  1.0000
  H   H11       1.0  0.2860389322007122  0.778510251105093  0.9982329758744166  1.0000
  H   H12       1.0  0.7139610668981152  0.22148974931271442  0.0017670234303723176  1.0000
  H   H13       1.0  0.2793250500462884  0.09296311775295056  0.43409499786501954  1.0000
  H   H14       1.0  0.7206749504817652  0.9070368826538108  0.5659050021272921  1.0000
  H   H15       1.0  0.19909546586915144  0.4575258606188858  0.38032232774684493  1.0000
  H   H16       1.0  0.8009045336893317  0.5424741386598959  0.6196776726555289  1.0000
  H   H17       1.0  0.2904652832044387  0.04551311031022811  0.6048942379482738  1.0000
  H   H18       1.0  0.7095347177817705  0.9544868889616246  0.3951057622021195  1.0000
  H   H19       1.0  0.4584595470576535  0.36106156671392614  0.386197379602168  1.0000
  H   H20       1.0  0.541540452042674  0.638938433699764  0.6138026206421242  1.0000
  C   C1        1.0  0.6566635455318646  0.8551231009713526  0.8945621463632529  1.0000
  C   C2        1.0  0.34333645499618887  0.1448768994354088  0.10543785362905886  1.0000
  C   C3        1.0  0.3260886598990115  0.7911063102120918  0.8903271990505897  1.0000
  C   C4        1.0  0.673911340629042  0.20889369019466963  0.10967280094172209  1.0000
  C   C5        1.0  0.008350623799929546  0.15094569618098586  0.5595485880824739  1.0000
  C   C6        1.0  0.9916493753003982  0.8490543042327042  0.44045141216181855  1.0000
  C   C7        1.0  0.615225495769114  0.26639160887854346  0.6171115230737679  1.0000
  C   C8        1.0  0.38477450333121366  0.7336083915351465  0.38288847717052443  1.0000
  C   C9        1.0  0.11999247579284993  0.39426384984029716  0.759150206399144  1.0000
  C   C10       1.0  0.8800075251933591  0.6057361494315557  0.24084979375124937  1.0000
  C   C11       1.0  0.2695133649350175  0.3945448392569937  0.5612166940539064  1.0000
  C   C12       1.0  0.7304866341653101  0.6054551611566964  0.43878330619038597  1.0000
  N   N1        1.0  0.20441663966730422  0.09139885566824044  0.5311506074071356  1.0000
  N   N2        1.0  0.7955833613189048  0.9086011436036123  0.46884939274325765  1.0000
  N   N3        1.0  0.905776809913123  0.1567410514305306  0.6885783657653672  1.0000
  N   N4        1.0  0.09422318918570441  0.8432589489872768  0.31142163353942154  1.0000
  N   N5        1.0  0.706420836224592  0.21385961369296752  0.719943028873636  1.0000
  N   N6        1.0  0.29357916430196157  0.7861403867179111  0.2800569701791725  1.0000
  N   N7        1.0  0.40606621254617337  0.32910538665828254  0.6465555129187198  1.0000
  N   N8        1.0  0.5939337870123098  0.6708946126204991  0.3534444874836541  1.0000
  N   N9        1.0  0.3072282082755126  0.3294559467121595  0.7748127810377915  1.0000
  N   N10       1.0  0.6927717922525408  0.6705440536946017  0.2251872189545205  1.0000
  N   N11       1.0  0.9561159879705963  0.4140342437769828  0.8715083979043485  1.0000
  N   N12       1.0  0.04388401112973143  0.5859657566367074  0.12849160233994375  1.0000
  N   N13       1.0  0.8952307135135988  0.20843477935992397  0.46168378976704105  1.0000
  N   N14       1.0  0.10476928558522862  0.7915652210578835  0.5383162095377478  1.0000
  N   N15       1.0  0.6955133369343429  0.26819685517522834  0.4893095695040202  1.0000
  N   N16       1.0  0.3044866621659848  0.7318031452384618  0.5106904307402721  1.0000
  N   N17       1.0  0.08486975643590988  0.43705312508775024  0.6347323281293981  1.0000
  N   N18       1.0  0.9151302426644178  0.5629468753259399  0.3652676721148943  1.0000
  N   N19       1.0  0.3164483175843304  0.4140606833047429  0.43005374012417674  1.0000
  N   N20       1.0  0.6835516829437233  0.5859393171020183  0.5699462598681351  1.0000
  O   O1        1.0  0.4877295283920132  0.9612959267457664  0.684486779562774  1.0000
  O   O2        1.0  0.5122704707083144  0.03870407366792372  0.31551322068151827  1.0000
  O   O3        1.0  0.9951407575887694  0.3611825656347978  0.9825205665147442  1.0000
  O   O4        1.0  0.004859242939284068  0.6388174347719635  0.017479433477567717  1.0000
  O   O5        1.0  0.7852539154335079  0.4825369827108141  0.8465139768916123  1.0000
  O   O6        1.0  0.21474608509454585  0.5174630176959472  0.15348602310069961  1.0000
  O   O7        1.0  0.006741104650448498  0.1050039171201994  0.7793788052406403  1.0000
  O   O8        1.0  0.9932588958776051  0.8949960832865619  0.22062119475167152  1.0000
  O   O9        1.0  0.9852911115450239  0.20152349953120552  0.34334109532345497  1.0000
  O   O10       1.0  0.014708887555303841  0.7984765008824846  0.6566589049208373  1.0000
  S   S1        1.0  0.4274428385965488  0.9460059891020917  0.8354494086248634  1.0000
  S   S2        1.0  0.5725571619315045  0.053994011304669784  0.16455059136744862  1.0000
