data_image0
_chemical_formula_structural       H20C22N8O6
_chemical_formula_sum              "H20 C22 N8 O6"
_cell_length_a       7.720629556380873
_cell_length_b       7.9677601211687445
_cell_length_c       10.138525365593388
_cell_angle_alpha    76.19975539134415
_cell_angle_beta     76.79195221132653
_cell_angle_gamma    62.21600475215497

_space_group_name_H-M_alt    "P 1"
_space_group_IT_number       1

loop_
  _space_group_symop_operation_xyz
  'x, y, z'

loop_
  _atom_site_type_symbol
  _atom_site_label
  _atom_site_symmetry_multiplicity
  _atom_site_fract_x
  _atom_site_fract_y
  _atom_site_fract_z
  _atom_site_occupancy
  H   H1        1.0  0.6557546759033921  0.7894840921767987  0.5363904464549908  1.0000
  H   H2        1.0  0.3442453244855638  0.21051590784480637  0.46360955349082705  1.0000
  H   H3        1.0  0.43560586421679354  0.61663564262652  0.5916978579656808  1.0000
  H   H4        1.0  0.5643941361721623  0.38336435739508484  0.4083021419801372  1.0000
  H   H5        1.0  0.12129156574946105  0.9187859341513617  0.9161293249643966  1.0000
  H   H6        1.0  0.8787084346394949  0.08121406587024324  0.08387067498142152  1.0000
  H   H7        1.0  0.17036548623301134  0.29714190795453965  0.05900185524436456  1.0000
  H   H8        1.0  0.8296345141559447  0.7028580920670653  0.9409981447014534  1.0000
  H   H9        1.0  0.8865421412722468  0.583005845745449  0.4111277261163755  1.0000
  H   H10       1.0  0.11345785778846967  0.41699415427132186  0.5888722740573334  1.0000
  H   H11       1.0  0.9339427370570849  0.34619986419018517  0.25940253598714497  1.0000
  H   H12       1.0  0.06605726200363184  0.6538001358265857  0.7405974641865637  1.0000
  H   H13       1.0  0.35415665332827095  0.47672716210259475  0.9857870211152499  1.0000
  H   H14       1.0  0.6458433457324458  0.5232728379141761  0.014212979058459066  1.0000
  H   H15       1.0  0.3296911676420156  0.7156917421581067  0.1253428714221279  1.0000
  H   H16       1.0  0.6703088327469403  0.2843082578634982  0.8746571285236899  1.0000
  H   H17       1.0  0.3189105289207777  0.8550310321486849  0.27656242589846436  1.0000
  H   H18       1.0  0.6810894701399389  0.14496896786808586  0.7234375742752445  1.0000
  H   H19       1.0  0.16694323539518943  0.9804788190723798  0.4129034755552183  1.0000
  H   H20       1.0  0.8330567636672223  0.01952118095296096  0.5870965236302785  1.0000
  C   C1        1.0  0.33513058954816466  0.12854490629872406  0.8864717077891461  1.0000
  C   C2        1.0  0.6648694108407912  0.871455093722881  0.11352829215667183  1.0000
  C   C3        1.0  0.36607801259849654  0.9802853771586963  0.8026460415106615  1.0000
  C   C4        1.0  0.63392198646222  0.019714622858074588  0.19735395866304717  1.0000
  C   C5        1.0  0.5366668155938837  0.8157072108263037  0.6223478823241966  1.0000
  C   C6        1.0  0.46333318544301255  0.18429278775976068  0.37765211777212027  1.0000
  C   C7        1.0  0.41490880163220456  0.7219872473630542  0.6529406642379023  1.0000
  C   C8        1.0  0.5850911987567512  0.2780127526585508  0.34705933570791553  1.0000
  C   C9        1.0  0.24278680801408017  0.8873139826630115  0.8319148393064972  1.0000
  C   C10       1.0  0.7572131923748757  0.1126860173585934  0.16808516063932072  1.0000
  C   C11       1.0  0.0718385536850897  0.8033293901069853  0.37265579388586056  1.0000
  C   C12       1.0  0.9281614467038661  0.19667060991461957  0.6273442060599573  1.0000
  C   C13       1.0  0.10567618981503116  0.6642632891830504  0.28060966921676  1.0000
  C   C14       1.0  0.8943238105739247  0.3357367108385546  0.719390330729058  1.0000
  C   C15       1.0  0.9929503321091078  0.560634645662498  0.31852196243824904  1.0000
  C   C16       1.0  0.007049666951608719  0.4393653543542728  0.6814780377354599  1.0000
  C   C17       1.0  0.018180518223004927  0.4305237079385727  0.23811674462895546  1.0000
  C   C18       1.0  0.9818194808377116  0.5694762920781983  0.7618832555447536  1.0000
  C   C19       1.0  0.25730581459031143  0.506133365325499  0.08244257524180747  1.0000
  C   C20       1.0  0.7426941857986444  0.49386663469610587  0.9175574247040105  1.0000
  C   C21       1.0  0.2400179733599785  0.6367405727698388  0.15960327246873515  1.0000
  C   C22       1.0  0.7599820257007381  0.3632594272469321  0.8403967277049736  1.0000
  N   N1        1.0  0.5133550290620514  0.9436094630479792  0.6973662588460103  1.0000
  N   N2        1.0  0.4866449713269045  0.056390536973625886  0.3026337410998076  1.0000
  N   N3        1.0  0.2679103111346015  0.7572042778712237  0.7576892672378225  1.0000
  N   N4        1.0  0.7320896879261153  0.24279572214554712  0.2423107329358865  1.0000
  N   N5        1.0  0.19698244060939962  0.8821144541782198  0.3509347563519644  1.0000
  N   N6        1.0  0.8030175584513171  0.11788554583855107  0.6490652438217445  1.0000
  N   N7        1.0  0.14913686886895666  0.40635758692052076  0.12326401935582326  1.0000
  N   N8        1.0  0.85086313019176  0.5936424130962501  0.8767359808178856  1.0000
  O   O1        1.0  0.1890582467433533  0.16051408412112603  0.98361956767192  1.0000
  O   O2        1.0  0.8109417536456026  0.8394859159004789  0.016380432273897905  1.0000
  O   O3        1.0  0.44735518707364835  0.2105010285145725  0.8559023872055469  1.0000
  O   O4        1.0  0.5526448133153075  0.7894989715070326  0.1440976127402709  1.0000
  O   O5        1.0  0.9272703427418184  0.8377590724468994  0.4663393190946148  1.0000
  O   O6        1.0  0.07272965631889806  0.16224092756987138  0.533660681079094  1.0000
