data_image0
_chemical_formula_structural       H48C48N8O32
_chemical_formula_sum              "H48 C48 N8 O32"
_cell_length_a       6.196757883202157
_cell_length_b       13.223443599107432
_cell_length_c       15.0287188088552
_cell_angle_alpha    90.0
_cell_angle_beta     94.86179218044707
_cell_angle_gamma    90.0

_space_group_name_H-M_alt    "P 1"
_space_group_IT_number       1

loop_
  _space_group_symop_operation_xyz
  'x, y, z'

loop_
  _atom_site_type_symbol
  _atom_site_label
  _atom_site_symmetry_multiplicity
  _atom_site_fract_x
  _atom_site_fract_y
  _atom_site_fract_z
  _atom_site_occupancy
  H   H1        1.0  0.9482168916444077  0.7519686264379107  0.37463653570309224  1.0000
  H   H2        1.0  0.051783108893218174  0.2519686264041614  0.12536346473566548  1.0000
  H   H3        1.0  0.05178310938402692  0.24803137362958805  0.6253634643187369  1.0000
  H   H4        1.0  0.948216890515759  0.7480313736633375  0.8746365352375592  1.0000
  H   H5        1.0  0.04377920077192424  0.9366555910471028  0.35633532358445685  1.0000
  H   H6        1.0  0.9562207997462568  0.43665559101335333  0.1436646761882766  1.0000
  H   H7        1.0  0.9562208002565102  0.0633444090203961  0.6436646764373724  1.0000
  H   H8        1.0  0.04377919966272029  0.5633444090541455  0.856335323784948  1.0000
  H   H9        1.0  0.609837244903898  0.850828979280361  0.2455567371052427  1.0000
  H   H10       1.0  0.3901627539948255  0.35082897924661155  0.2544432626188863  1.0000
  H   H11       1.0  0.39016275450507903  0.14917102078713787  0.754443262867982  1.0000
  H   H12       1.0  0.6098372454141516  0.6491710208208873  0.7455567373543385  1.0000
  H   H13       1.0  0.5662358979658655  0.5021524930501616  0.2179965841255478  1.0000
  H   H14       1.0  0.433764100932858  0.002152493016412249  0.2820034155985813  1.0000
  H   H15       1.0  0.43376410144311167  0.49784750701733715  0.782003415847677  1.0000
  H   H16       1.0  0.5662358984761191  0.9978475070510866  0.7179965843746435  1.0000
  H   H17       1.0  0.5483603091821878  0.4551900565754512  0.45960333565831496  1.0000
  H   H18       1.0  0.45163969135543797  0.9551900566092006  0.040396664780442786  1.0000
  H   H19       1.0  0.4516396918462467  0.5448099434920477  0.5403966643635143  1.0000
  H   H20       1.0  0.5483603080535392  0.04480994345829825  0.959603335192782  1.0000
  H   H21       1.0  0.11204393358897147  0.31993970468370037  0.3584878996068285  1.0000
  H   H22       1.0  0.8879560653291968  0.8199397047174498  0.1415121007833248  1.0000
  H   H23       1.0  0.8879560658200055  0.6800602953837985  0.6415121003663962  1.0000
  H   H24       1.0  0.11204393409922506  0.18006029535004905  0.8584878998559242  1.0000
  H   H25       1.0  0.13723412109771924  0.5766693095370948  0.3311856119964733  1.0000
  H   H26       1.0  0.8627658778010043  0.07666930950334545  0.16881438772765575  1.0000
  H   H27       1.0  0.8627658783112578  0.42333069053040395  0.6688143879767515  1.0000
  H   H28       1.0  0.13723412160797283  0.9233306905641534  0.831185612245569  1.0000
  H   H29       1.0  0.3217606662355181  0.3400755186268984  0.5324625182827285  1.0000
  H   H30       1.0  0.6782393336837126  0.8400755186606479  0.967537481939592  1.0000
  H   H31       1.0  0.678239333173459  0.6599244814406005  0.46753748169049625  1.0000
  H   H32       1.0  0.32176066572526446  0.15992448140685106  0.03246251803363277  1.0000
  H   H33       1.0  0.7008302666723256  0.05249178966111766  0.46098676402384237  1.0000
  H   H34       1.0  0.2991697322458427  0.5524917896948671  0.03901323636631085  1.0000
  H   H35       1.0  0.29916973273665143  0.9475082104063812  0.5390132359493823  1.0000
  H   H36       1.0  0.7008302671631345  0.4475082103726318  0.9609867636069138  1.0000
  H   H37       1.0  0.11094697210327958  0.14297143522641953  0.3534411753554812  1.0000
  H   H38       1.0  0.889053026795444  0.642971435260169  0.14655882436864787  1.0000
  H   H39       1.0  0.8890530273056976  0.8570285648410794  0.6465588246177435  1.0000
  H   H40       1.0  0.11094697261353316  0.3570285648073299  0.8534411756045769  1.0000
  H   H41       1.0  0.8679217903055542  0.9188453937081965  0.5061606858168828  1.0000
  H   H42       1.0  0.1320782096136766  0.4188453936744471  0.9938393144054377  1.0000
  H   H43       1.0  0.13207821072288056  0.08115460635930234  0.4938393142049463  1.0000
  H   H44       1.0  0.8679217897953005  0.5811546063930518  0.006160685567787086  1.0000
  H   H45       1.0  0.6327821802234193  0.9034524449294277  0.46790058911840704  1.0000
  H   H46       1.0  0.3672178203142065  0.4034524448956782  0.03209941132035063  1.0000
  H   H47       1.0  0.36721782080501536  0.09654755513807123  0.532099410903422  1.0000
  H   H48       1.0  0.6327821790947705  0.5965475551718207  0.9679005886528741  1.0000
  C   C1        1.0  0.5411033632115855  0.649359802206106  0.24233103643644996  1.0000
  C   C2        1.0  0.4588966373065955  0.1493598021723565  0.25766896333628353  1.0000
  C   C3        1.0  0.4588966378168491  0.3506401978613929  0.7576689635853793  1.0000
  C   C4        1.0  0.5411033621023816  0.8506401978951423  0.7423310366369412  1.0000
  C   C5        1.0  0.4005878403036019  0.7277843020141589  0.27981359340353695  1.0000
  C   C6        1.0  0.5994121586145665  0.22778430198040947  0.22018640698661637  1.0000
  C   C7        1.0  0.5994121591053753  0.27221569805334  0.7201864065696878  1.0000
  C   C8        1.0  0.4005878407944106  0.7722156980870893  0.7798135929866085  1.0000
  C   C9        1.0  0.09458567987692389  0.7746209951461812  0.34470264224693087  1.0000
  C   C10       1.0  0.9054143206412572  0.2746209951124318  0.15529735752580254  1.0000
  C   C11       1.0  0.9054143195320532  0.22537900492131763  0.6552973577262937  1.0000
  C   C12       1.0  0.09458568038717749  0.725379004955067  0.8447026424960267  1.0000
  C   C13       1.0  0.14953021556057897  0.8766010338473728  0.33596922615698077  1.0000
  C   C14       1.0  0.8504697849576021  0.37660103381362336  0.16403077361575272  1.0000
  C   C15       1.0  0.8504697838483981  0.12339896622012604  0.664030773816244  1.0000
  C   C16       1.0  0.14953021607083258  0.6233989662538755  0.8359692264060765  1.0000
  C   C17       1.0  0.46054218323215934  0.8290243859579784  0.27388162664871357  1.0000
  C   C18       1.0  0.5394578172860217  0.3290243866804617  0.2261183731240199  1.0000
  C   C19       1.0  0.5394578177962752  0.17097561335328773  0.7261183733731157  1.0000
  C   C20       1.0  0.46054218212295545  0.6709756133870372  0.7738816268492048  1.0000
  C   C21       1.0  0.91530100037724  0.5015851476424567  0.3873003537061554  1.0000
  C   C22       1.0  0.08469899854092834  0.0015851476087072245  0.11269964668399785  1.0000
  C   C23       1.0  0.0846989990317371  0.4984148524250422  0.6126996462670693  1.0000
  C   C24       1.0  0.9153010008680488  0.9984148524587916  0.8873003532892269  1.0000
  C   C25       1.0  0.8392616314185685  0.3989731245464767  0.4075001199054116  1.0000
  C   C26       1.0  0.16073836911905753  0.8989731245802262  0.09249988053334612  1.0000
  C   C27       1.0  0.1607383696098663  0.6010268755210221  0.5924998801164175  1.0000
  C   C28       1.0  0.8392616302899196  0.10102687548727271  0.9075001194398786  1.0000
  C   C29       1.0  0.644281045282917  0.3885713703461348  0.447812174334391  1.0000
  C   C30       1.0  0.3557189536158066  0.8885713703798842  0.052187825389738006  1.0000
  C   C31       1.0  0.35571895412606014  0.6114286289651314  0.5521878256388337  1.0000
  C   C32       1.0  0.6442810457931706  0.11142862893138196  0.9478121745834868  1.0000
  C   C33       1.0  0.5721826055413263  0.29353942949187634  0.47163195198880287  1.0000
  C   C34       1.0  0.42781739335739727  0.7935394295256257  0.028368047735326137  1.0000
  C   C35       1.0  0.42781739386765083  0.7064605705756225  0.5283680479844218  1.0000
  C   C36       1.0  0.5721826060515799  0.20646057054187306  0.9716319522378986  1.0000
  C   C37       1.0  0.691878901943369  0.20643226626566885  0.4521625098507695  1.0000
  C   C38       1.0  0.30812109857481196  0.7064322662994182  0.047837489921963953  1.0000
  C   C39       1.0  0.30812109746560806  0.79356773380183  0.5478374901224552  1.0000
  C   C40       1.0  0.6918789024536226  0.29356773376808054  0.9521625100998652  1.0000
  C   C41       1.0  0.8852201008809097  0.21746099784432088  0.41025110611731325  1.0000
  C   C42       1.0  0.11477989801781376  0.7174609978780704  0.08974889360681577  1.0000
  C   C43       1.0  0.11477989852806735  0.782539002223178  0.5897488938559114  1.0000
  C   C44       1.0  0.8852201013911634  0.28253900218942857  0.910251106366409  1.0000
  C   C45       1.0  0.9596177786182613  0.31314783240573624  0.3886339953487597  1.0000
  C   C46       1.0  0.04038222191936453  0.8131478324394856  0.11136600508999796  1.0000
  C   C47       1.0  0.04038222079071575  0.6868521676617626  0.611366004624465  1.0000
  C   C48       1.0  0.9596177791090701  0.18685216762801318  0.8886339949318313  1.0000
  N   N1        1.0  0.21885266758094354  0.7004177747334416  0.31651690138782235  1.0000
  N   N2        1.0  0.7811473313372248  0.20041777469969216  0.1834830990023309  1.0000
  N   N3        1.0  0.7811473318280336  0.29958222533405726  0.6834830985854023  1.0000
  N   N4        1.0  0.21885266807175227  0.7995822253678067  0.8165169009708938  1.0000
  N   N5        1.0  0.3342035457712684  0.9024742035278556  0.3015248850859391  1.0000
  N   N6        1.0  0.6657964531469001  0.4024742034941061  0.19847511530421413  1.0000
  N   N7        1.0  0.6657964536377089  0.0975257965396433  0.6984751148872856  1.0000
  N   N8        1.0  0.33420354626207704  0.5975257965733928  0.8015248846690106  1.0000
  O   O1        1.0  0.460376578513566  0.5585888656490794  0.24171799197285856  1.0000
  O   O2        1.0  0.5396234220240599  0.058588865615329916  0.25828200846589916  1.0000
  O   O3        1.0  0.539623420895411  0.4414111344184195  0.7582820080003662  1.0000
  O   O4        1.0  0.46037657900437484  0.941411134452169  0.74171799155593  1.0000
  O   O5        1.0  0.7159917462677291  0.6752084328928261  0.2143029476019937  1.0000
  O   O6        1.0  0.28400825426989673  0.17520843285907656  0.28569705283676394  1.0000
  O   O7        1.0  0.28400825314124795  0.3247915671746729  0.785697052371231  1.0000
  O   O8        1.0  0.7159917467585379  0.8247915672084224  0.7143029471850652  1.0000
  O   O9        1.0  0.09031463181446636  0.5037284410884931  0.3415049333777213  1.0000
  O   O10       1.0  0.9096853687037146  0.0037284410547437042  0.15849506639501215  1.0000
  O   O11       1.0  0.9096853675945108  0.49627155897900577  0.6584950665955035  1.0000
  O   O12       1.0  0.09031463232471995  0.9962715590127551  0.841504933626817  1.0000
  O   O13       1.0  0.8247546550154183  0.580235038059065  0.4102312398140333  1.0000
  O   O14       1.0  0.17524534550276272  0.08023503802531552  0.08976875995870008  1.0000
  O   O15       1.0  0.17524534439355877  0.4197649620084339  0.5897687601591914  1.0000
  O   O16       1.0  0.824754655525672  0.9197649620421834  0.910231240063129  1.0000
  O   O17       1.0  0.39021979852497346  0.2764182085101283  0.5135136129884456  1.0000
  O   O18       1.0  0.6097802013942573  0.7764182085438777  0.9864863872338749  1.0000
  O   O19       1.0  0.6097802008840036  0.7235817915573706  0.48648638698477925  1.0000
  O   O20       1.0  0.39021979963417736  0.22358179152362112  0.013513612787954193  1.0000
  O   O21       1.0  0.6152229829242778  0.11607103236736316  0.4765052267097928  1.0000
  O   O22       1.0  0.3847770159938906  0.6160710324011125  0.023494773680360483  1.0000
  O   O23       1.0  0.38477701648469936  0.8839289677001357  0.5234947732634319  1.0000
  O   O24       1.0  0.6152229834345313  0.3839289676663863  0.9765052269588885  1.0000
  O   O25       1.0  0.9941427261828546  0.1298475459233552  0.39464221573227487  1.0000
  O   O26       1.0  0.005857274354771297  0.629847545200872  0.10535778470648287  1.0000
  O   O27       1.0  0.005857273226122517  0.8701524541441437  0.60535778424095  1.0000
  O   O28       1.0  0.9941427266736633  0.3701524541103942  0.8946422153153463  1.0000
  O   O29       1.0  0.7664532376320018  0.939449302059149  0.4548763428448219  1.0000
  O   O30       1.0  0.2335467628861792  0.4394493020253996  0.04512365692791148  1.0000
  O   O31       1.0  0.23354676177697528  0.06055069800834977  0.5451236571284027  1.0000
  O   O32       1.0  0.7664532381422553  0.5605506980420992  0.9548763430939177  1.0000
