data_image0
_chemical_formula_structural       H32C16Cl8
_chemical_formula_sum              "H32 C16 Cl8"
_cell_length_a       13.324706641895052
_cell_length_b       7.496775583959296
_cell_length_c       6.7021627595123405
_cell_angle_alpha    90.0
_cell_angle_beta     88.76348672492668
_cell_angle_gamma    90.0

_space_group_name_H-M_alt    "P 1"
_space_group_IT_number       1

loop_
  _space_group_symop_operation_xyz
  'x, y, z'

loop_
  _atom_site_type_symbol
  _atom_site_label
  _atom_site_symmetry_multiplicity
  _atom_site_fract_x
  _atom_site_fract_y
  _atom_site_fract_z
  _atom_site_occupancy
  H   H1        1.0  0.5652051575272465  0.8074450331622552  0.5393705939497209  1.0000
  H   H2        1.0  0.0652051574719897  0.3074450334263219  0.5393705946984965  1.0000
  H   H3        1.0  0.4347948425894981  0.8074450331622552  0.9606294060848474  1.0000
  H   H4        1.0  0.934794842644755  0.3074450334263219  0.9606294053360718  1.0000
  H   H5        1.0  0.4347948423338605  0.19255496630961141  0.46062940657637547  1.0000
  H   H6        1.0  0.9347948423891175  0.6925549660455448  0.46062940582759987  1.0000
  H   H7        1.0  0.5652051572716089  0.19255496630961141  0.039370594441249  1.0000
  H   H8        1.0  0.0652051572213712  0.6925549660455448  0.03937059369778694  1.0000
  H   H9        1.0  0.30795367338300855  0.7129048975983082  0.6819242113499869  1.0000
  H   H10       1.0  0.8079536734332463  0.21290489786237488  0.681924212093449  1.0000
  H   H11       1.0  0.6920463267337362  0.7129048975983082  0.8180757886845813  1.0000
  H   H12       1.0  0.19204632668349836  0.21290489786237488  0.8180757879411192  1.0000
  H   H13       1.0  0.6920463264831175  0.28709510187355847  0.3180757876838717  1.0000
  H   H14       1.0  0.1920463264278608  0.7870951016094918  0.3180757884326474  1.0000
  H   H15       1.0  0.30795367312737093  0.28709510187355847  0.18192421184151505  1.0000
  H   H16       1.0  0.8079536731826277  0.7870951016094918  0.18192421109273946  1.0000
  H   H17       1.0  0.3737955575408573  0.6812617948612358  0.45103473815582457  1.0000
  H   H18       1.0  0.8737955575910951  0.18126179512530247  0.4510347388992866  1.0000
  H   H19       1.0  0.6262044428202749  0.6812617948612358  0.048965261347333734  1.0000
  H   H20       1.0  0.12620444276501802  0.18126179512530247  0.04896526209610933  1.0000
  H   H21       1.0  0.6262044423202497  0.31873820461063085  0.5489652623702718  1.0000
  H   H22       1.0  0.126204442270012  0.8187382056804711  0.5489652616268097  1.0000
  H   H23       1.0  0.37379555704585127  0.31873820461063085  0.951034737686525  1.0000
  H   H24       1.0  0.873795557096089  0.8187382056804711  0.951034738429987  1.0000
  H   H25       1.0  0.3378669135570266  0.49344135336199024  0.5992170935267006  1.0000
  H   H26       1.0  0.8378669136122835  0.9934413530979236  0.5992170927779249  1.0000
  H   H27       1.0  0.662133086559718  0.49344135336199024  0.9007829065078675  1.0000
  H   H28       1.0  0.16213308650446118  0.9934413530979236  0.9007829072566432  1.0000
  H   H29       1.0  0.6621330863040805  0.5065586461098764  0.4007829069993958  1.0000
  H   H30       1.0  0.1621330862538427  0.006558646373943126  0.4007829062559337  1.0000
  H   H31       1.0  0.3378669140520326  0.5065586461098764  0.09921709399600019  1.0000
  H   H32       1.0  0.8378669133566459  0.006558646373943126  0.09921709326945306  1.0000
  C   C1        1.0  0.36534043211585204  0.631526919403875  0.6046531964143179  1.0000
  C   C2        1.0  0.8653404321660898  0.13152691966794156  0.6046531971577801  1.0000
  C   C3        1.0  0.634659567250249  0.631526919403875  0.8953468036424788  1.0000
  C   C4        1.0  0.1346595672000113  0.13152691966794156  0.8953468028990167  1.0000
  C   C5        1.0  0.6346595677502741  0.36847308006799184  0.39534680261954064  1.0000
  C   C6        1.0  0.1346595676950173  0.8684730798039252  0.39534680336831624  1.0000
  C   C7        1.0  0.3653404326108581  0.36847308006799184  0.10465319688361763  1.0000
  C   C8        1.0  0.8653404326610958  0.8684730798039252  0.10465319762707968  1.0000
  C   C9        1.0  0.4602878830501216  0.6392744315642063  0.70638631993681  1.0000
  C   C10       1.0  0.9602878831053784  0.13927443182827293  0.7063863191880344  1.0000
  C   C11       1.0  0.539712117066623  0.6392744315642063  0.7936136800977581  1.0000
  C   C12       1.0  0.039712117011366226  0.13927443182827293  0.7936136808465337  1.0000
  C   C13       1.0  0.5397121168109854  0.3607255679076604  0.2936136805892863  1.0000
  C   C14       1.0  0.039712116760747734  0.8607255676435938  0.2936136798458242  1.0000
  C   C15       1.0  0.46028788279448407  0.3607255679076604  0.20638632042833815  1.0000
  C   C16       1.0  0.9602878828497409  0.8607255676435938  0.20638631967956256  1.0000
  Cl  Cl1       1.0  0.621870206423318  0.8886725039835701  0.4040811508418477  1.0000
  Cl  Cl2       1.0  0.1218702063730804  0.38867250291373  0.40408115009838563  1.0000
  Cl  Cl3       1.0  0.3781297931871704  0.8886725039835701  0.09591884868353903  1.0000
  Cl  Cl4       1.0  0.8781297932374081  0.38867250291373  0.09591884942700107  1.0000
  Cl  Cl5       1.0  0.3781297934377889  0.11132749682220332  0.5959188496842486  1.0000
  Cl  Cl6       1.0  0.8781297934930458  0.6113274965581366  0.5959188489354729  1.0000
  Cl  Cl7       1.0  0.6218702066789558  0.11132749682220332  0.9040811503503196  1.0000
  Cl  Cl8       1.0  0.12187020662369889  0.6113274965581366  0.904081151099095  1.0000
