data_image0
_chemical_formula_structural       H72C96N24O32Cl16
_chemical_formula_sum              "H72 C96 N24 O32 Cl16"
_cell_length_a       6.9777495263267815
_cell_length_b       24.097822912786498
_cell_length_c       15.678722264997818
_cell_angle_alpha    90.0
_cell_angle_beta     93.2490744578229
_cell_angle_gamma    90.0

_space_group_name_H-M_alt    "P 1"
_space_group_IT_number       1

loop_
  _space_group_symop_operation_xyz
  'x, y, z'

loop_
  _atom_site_type_symbol
  _atom_site_label
  _atom_site_symmetry_multiplicity
  _atom_site_fract_x
  _atom_site_fract_y
  _atom_site_fract_z
  _atom_site_occupancy
  H   H1        1.0  0.4924713480705586  0.17541771035909728  0.13258177723541142  1.0000
  H   H2        1.0  0.007528652758420464  0.6754177100937933  0.367418223161652  1.0000
  H   H3        1.0  0.5075286520713107  0.8245822895252699  0.8674182229206416  1.0000
  H   H4        1.0  0.9924713473834488  0.32458228979057396  0.632581776994401  1.0000
  H   H5        1.0  0.37948247728569157  0.3451780988724247  0.05630067196032121  1.0000
  H   H6        1.0  0.1205175220271987  0.845178099022096  0.4436993277986684  1.0000
  H   H7        1.0  0.6205175228561777  0.6548219010119425  0.9436993281957318  1.0000
  H   H8        1.0  0.8794824765985818  0.15482190127724652  0.5563006717193109  1.0000
  H   H9        1.0  0.3759089927673085  0.3166916379799033  0.9046683880528386  1.0000
  H   H10       1.0  0.12409100713164294  0.8166916381295745  0.5953316119875  1.0000
  H   H11       1.0  0.6240910073745607  0.6833083619044639  0.0953316121032144  1.0000
  H   H12       1.0  0.8759089930102263  0.18330836216976795  0.404668388168553  1.0000
  H   H13       1.0  0.4586193164278033  0.24572784319275584  0.7244724300146974  1.0000
  H   H14       1.0  0.04138068347114807  0.7457278433424271  0.7755275700256411  1.0000
  H   H15       1.0  0.5413806837140659  0.7542721566916113  0.27552757014135565  1.0000
  H   H16       1.0  0.9586193166707212  0.25427215654194013  0.22447243013041182  1.0000
  H   H17       1.0  0.7843658423086678  0.5654858332770557  0.36839179993564924  1.0000
  H   H18       1.0  0.7156341579930597  0.06548583312738453  0.13160819969728477  1.0000
  H   H19       1.0  0.2156341577501418  0.43451416702228673  0.6316081995815702  1.0000
  H   H20       1.0  0.2843658421488096  0.9345141667569827  0.8683918004587682  1.0000
  H   H21       1.0  0.5983341786812372  0.40229023447824064  0.2864574895725857  1.0000
  H   H22       1.0  0.9016658201874611  0.9022902346279118  0.2135425100611079  1.0000
  H   H23       1.0  0.40166582137757234  0.5977097654061265  0.7135425099446339  1.0000
  H   H24       1.0  0.09833417852137909  0.09770976525645536  0.7864574900957046  1.0000
  H   H25       1.0  0.6405714749068355  0.42975212480729846  0.1354751079297042  1.0000
  H   H26       1.0  0.8594285240449225  0.9297521249569697  0.36452489234282287  1.0000
  H   H27       1.0  0.3594285252350337  0.5702478750770688  0.8645248922263487  1.0000
  H   H28       1.0  0.14057147609694678  0.07024787492739751  0.6354751078132301  1.0000
  H   H29       1.0  0.7595122491251793  0.4908208435594454  0.958695596973467  1.0000
  H   H30       1.0  0.7404877503295801  0.9908208437091165  0.5413044029415756  1.0000
  H   H31       1.0  0.24048775093363015  0.5091791563249218  0.04130440254375253  1.0000
  H   H32       1.0  0.2595122498122892  0.009179156590225864  0.4586955972144774  1.0000
  H   H33       1.0  0.39450762508323806  0.19087127732021902  0.39017778727114555  1.0000
  H   H34       1.0  0.10549237422965217  0.6908712774698902  0.10982221248784402  1.0000
  H   H35       1.0  0.6054923750586312  0.8091287225641483  0.6098222128849075  1.0000
  H   H36       1.0  0.8945076259122171  0.309128722414477  0.890177787668209  1.0000
  H   H37       1.0  0.38288062919098503  0.11831411618877723  0.5034039602199999  1.0000
  H   H38       1.0  0.1171193707079664  0.6183141163384485  0.9965960398203386  1.0000
  H   H39       1.0  0.6171193709508842  0.88168588369559  0.4965960399360531  1.0000
  H   H40       1.0  0.8828806279178141  0.38168588396089403  0.00340395969764052  1.0000
  H   H41       1.0  0.40210715849461925  0.148574561816547  0.6587660382374824  1.0000
  H   H42       1.0  0.09789284140433215  0.6485745619662182  0.841233961802856  1.0000
  H   H43       1.0  0.5978928416472501  0.8514254380678202  0.3412339619185705  1.0000
  H   H44       1.0  0.9021071587375372  0.3514254383331243  0.15876603835319694  1.0000
  H   H45       1.0  0.46189831177266927  0.33891809602710726  0.43724315477471365  1.0000
  H   H46       1.0  0.03810168897325008  0.8389180957618033  0.06275684498351629  1.0000
  H   H47       1.0  0.5381016883692  0.6610819042722352  0.5627568453813393  1.0000
  H   H48       1.0  0.9618983110855595  0.16108190412256398  0.9372431545337032  1.0000
  H   H49       1.0  0.4392601844421542  0.2889343977337281  0.3580586451449601  1.0000
  H   H50       1.0  0.060739814870736035  0.7889343974684241  0.1419413546140294  1.0000
  H   H51       1.0  0.5607398156997151  0.7110656025656144  0.6419413550110928  1.0000
  H   H52       1.0  0.9392601837550444  0.21106560241594313  0.8580586449039497  1.0000
  H   H53       1.0  0.8424607962281714  0.5405598936113076  0.6285672291235128  1.0000
  H   H54       1.0  0.6575392032265882  0.04055989387661161  0.8714327707915297  1.0000
  H   H55       1.0  0.157539203913698  0.4594401062730596  0.3714327710325402  1.0000
  H   H56       1.0  0.3424607969152811  0.9594401060077555  0.12856722936452328  1.0000
  H   H57       1.0  0.8887953725125595  0.611610980101428  0.7427749127045884  1.0000
  H   H58       1.0  0.6112046269422  0.11161097995175683  0.7572250872104541  1.0000
  H   H59       1.0  0.11120462754625007  0.3883890201979144  0.2572250868126311  1.0000
  H   H60       1.0  0.38879537176664014  0.8883890199326103  0.2427749129463584  1.0000
  H   H61       1.0  0.8391577822971102  0.5831034048533965  0.8967374269421324  1.0000
  H   H62       1.0  0.6608422172407091  0.08310340470372526  0.6032625736117436  1.0000
  H   H63       1.0  0.1608422178447591  0.4168965950309707  0.10326257321392052  1.0000
  H   H64       1.0  0.3391577829011602  0.9168965951806419  0.3967374265443094  1.0000
  H   H65       1.0  0.7078388436869921  0.3967301861500198  0.670668457189133  1.0000
  H   H66       1.0  0.7921611572007964  0.8967301858847156  0.8293315427251498  1.0000
  H   H67       1.0  0.29216115645487717  0.6032698141493227  0.3293315429669199  1.0000
  H   H68       1.0  0.20783884294107283  0.10326981399965142  0.1706684574309032  1.0000
  H   H69       1.0  0.7509028268017278  0.4454684155017182  0.5920257234861964  1.0000
  H   H70       1.0  0.7490971726530317  0.9454684152364141  0.9079742764288461  1.0000
  H   H71       1.0  0.24909717334014136  0.5545315847976243  0.40797427666985653  1.0000
  H   H72       1.0  0.25090282740577796  0.054531584647953074  0.09202572308837338  1.0000
  C   C1        1.0  0.42812520247537084  0.23011708360831254  0.9312314633733019  1.0000
  C   C2        1.0  0.07187479734052081  0.7301170837579837  0.568768536028203  1.0000
  C   C3        1.0  0.5718747975834386  0.7698829162760548  0.06876853614391747  1.0000
  C   C4        1.0  0.9281252027182887  0.2698829165413587  0.43123146348901653  1.0000
  C   C5        1.0  0.46025003874359693  0.19033861716886613  0.9964997948415683  1.0000
  C   C6        1.0  0.039749962588383585  0.6903386173185374  0.5035002051980105  1.0000
  C   C7        1.0  0.5397499613982724  0.8096613827155011  0.0035002053144847388  1.0000
  C   C8        1.0  0.9602500374704259  0.3096613829808051  0.4964997943192089  1.0000
  C   C9        1.0  0.46402720859858515  0.2058243808144273  0.08214400425579957  1.0000
  C   C10       1.0  0.03597279214733417  0.7058243809640985  0.41785599550243036  1.0000
  C   C11       1.0  0.5359727914602244  0.7941756190699399  0.9178559952614199  1.0000
  C   C12       1.0  0.9640272079945351  0.29417561933524394  0.5821440046536227  1.0000
  C   C13       1.0  0.43441436221935487  0.2614507141496571  0.10201646409862092  1.0000
  C   C14       1.0  0.06558563860962417  0.761450713884353  0.39798353629844246  1.0000
  C   C15       1.0  0.5655856379225145  0.7385492861496854  0.8979835360574322  1.0000
  C   C16       1.0  0.9344143615322451  0.23854928600001413  0.6020164638576104  1.0000
  C   C17       1.0  0.4022150479865221  0.3020259571306811  0.03954985769316798  1.0000
  C   C18       1.0  0.09778495140942785  0.802025956865377  0.46045014270465506  1.0000
  C   C19       1.0  0.5977849521553471  0.6979740431686613  0.960450142462885  1.0000
  C   C20       1.0  0.9022150487324415  0.1979740430189901  0.5395498574513979  1.0000
  C   C21       1.0  0.4004072986874274  0.28568017181117017  0.954572968560088  1.0000
  C   C22       1.0  0.09959270121152397  0.7856801719608415  0.5454270314802504  1.0000
  C   C23       1.0  0.5995927014544419  0.714319828073197  0.045427031595965  1.0000
  C   C24       1.0  0.9004072989303453  0.21431982833850105  0.4545729686758025  1.0000
  C   C25       1.0  0.41766202997529794  0.2156280095843377  0.8380253815213607  1.0000
  C   C26       1.0  0.08233796992365351  0.7156280097340089  0.6619746185189778  1.0000
  C   C27       1.0  0.5823379701665713  0.7843719903000296  0.16197461863469229  1.0000
  C   C28       1.0  0.9176620302182157  0.28437199015035824  0.3380253816370752  1.0000
  C   C29       1.0  0.7301123339763926  0.5130137504430058  0.1651765133094289  1.0000
  C   C30       1.0  0.7698876663253347  0.013013750708309823  0.33482348632350506  1.0000
  C   C31       1.0  0.26988766608241693  0.4869862494413614  0.8348234862077906  1.0000
  C   C32       1.0  0.23011233381653448  0.9869862495910326  0.6651765138325478  1.0000
  C   C33       1.0  0.7686804387090279  0.5515592581995235  0.2318782743142307  1.0000
  C   C34       1.0  0.7313195616757591  0.051559258049852195  0.26812172595753675  1.0000
  C   C35       1.0  0.2313195614328413  0.448440742099819  0.7681217258418223  1.0000
  C   C36       1.0  0.2686804384661101  0.9484407418345151  0.7318782741985163  1.0000
  C   C37       1.0  0.7501715835680752  0.5362712875254373  0.3168829175550735  1.0000
  C   C38       1.0  0.749828416816712  0.0362712873757661  0.18311708271669397  1.0000
  C   C39       1.0  0.24982841657379407  0.46372871277390515  0.6831170826009795  1.0000
  C   C40       1.0  0.2501715833251574  0.9637287125086011  0.816882917439359  1.0000
  C   C41       1.0  0.6864583850681829  0.48294630938734334  0.3343321823483056  1.0000
  C   C42       1.0  0.8135416152335446  0.9829463095370146  0.16566781728462834  1.0000
  C   C43       1.0  0.3135416149906267  0.5170536904970239  0.665667817168914  1.0000
  C   C44       1.0  0.18645838482526506  0.01705369076232787  0.8343321822325911  1.0000
  C   C45       1.0  0.6441336179098683  0.4438715500861464  0.2706076334534001  1.0000
  C   C46       1.0  0.85586638095883  0.9438715502358177  0.22939236618029352  1.0000
  C   C47       1.0  0.35586638071591215  0.5561284497982207  0.729392366064579  1.0000
  C   C48       1.0  0.1441336191830393  0.056128450063524765  0.7706076339757595  1.0000
  C   C49       1.0  0.669880813520788  0.4593944000694749  0.18685558309876854  1.0000
  C   C50       1.0  0.8301191867809395  0.9593943998041708  0.31314441653416547  1.0000
  C   C51       1.0  0.3301191865380216  0.5406055998148923  0.8131444164184509  1.0000
  C   C52       1.0  0.1698808133609298  0.040605600080196314  0.6868555836218875  1.0000
  C   C53       1.0  0.7447492590125999  0.5265227653933674  0.07197546861701641  1.0000
  C   C54       1.0  0.7552507412891276  0.026522765658671458  0.4280245310159176  1.0000
  C   C55       1.0  0.2552507410462097  0.4734772344909997  0.9280245309002031  1.0000
  C   C56       1.0  0.24474925885274174  0.973477234640671  0.5719754691401354  1.0000
  C   C57       1.0  0.4364008817603781  0.26987432364893227  0.5683553607247356  1.0000
  C   C58       1.0  0.06359911813857329  0.7698743237986035  0.9316446393156029  1.0000
  C   C59       1.0  0.5635991182984315  0.7301256762354349  0.4316446387924839  1.0000
  C   C60       1.0  0.936400882003296  0.2301256760857637  0.0683553608404501  1.0000
  C   C61       1.0  0.42370881712813885  0.2588601643632332  0.4795376541017819  1.0000
  C   C62       1.0  0.07629118218475142  0.7588601640979291  0.020462345657207674  1.0000
  C   C63       1.0  0.5762911815807014  0.7411398359361093  0.5204623460550307  1.0000
  C   C64       1.0  0.9237088178740581  0.24113983578643802  0.9795376538600118  1.0000
  C   C65       1.0  0.4048756589035583  0.2022297287035913  0.45752273361702894  1.0000
  C   C66       1.0  0.09512434040933197  0.7022297284382872  0.04247726614196061  1.0000
  C   C67       1.0  0.5951243411552513  0.7977702711807759  0.5424772659001905  1.0000
  C   C68       1.0  0.9048756597325374  0.2977702714460799  0.9575227340140924  1.0000
  C   C69       1.0  0.39829633563660716  0.16192571022378693  0.5204310818386991  1.0000
  C   C70       1.0  0.10170366426234424  0.6619257099584829  0.9795689182016394  1.0000
  C   C71       1.0  0.6017036645052621  0.8380742900755555  0.479568918317354  1.0000
  C   C72       1.0  0.8982963358795251  0.3380742899258843  0.02043108195441351  1.0000
  C   C73       1.0  0.41075781902585035  0.1776845910726664  0.606056693975063  1.0000
  C   C74       1.0  0.08924218087310111  0.6776845912223376  0.8939433060652755  1.0000
  C   C75       1.0  0.5892421811160189  0.8223154088117008  0.39394330618099  1.0000
  C   C76       1.0  0.9107578192687682  0.32231540866202957  0.10605669409077743  1.0000
  C   C77       1.0  0.7471950900246005  0.46445021529564434  0.8024284358632269  1.0000
  C   C78       1.0  0.7528049094301591  0.9644502154453155  0.6975715640518156  1.0000
  C   C79       1.0  0.2528049101172688  0.5355497845887228  0.19757156429282613  1.0000
  C   C80       1.0  0.2471950907117102  0.035549784854026906  0.30242843610423725  1.0000
  C   C81       1.0  0.7737051760387598  0.4749914459669517  0.7151384159386098  1.0000
  C   C82       1.0  0.7262948234159998  0.9749914457016478  0.7848615839764327  1.0000
  C   C83       1.0  0.22629482410310947  0.5250085539174154  0.28486158421744306  1.0000
  C   C84       1.0  0.2737051767258695  0.025008554182719474  0.21513841617962032  1.0000
  C   C85       1.0  0.8240919439654533  0.5298877913666047  0.6950567907889827  1.0000
  C   C86       1.0  0.6759080554893062  0.029887791631908783  0.8049432091260598  1.0000
  C   C87       1.0  0.17590805617641594  0.4701122085177625  0.3049432093670702  1.0000
  C   C88       1.0  0.32409194456950335  0.9701122086674336  0.19505679039115972  1.0000
  C   C89       1.0  0.8485802756854648  0.5694515280348711  0.758841169058334  1.0000
  C   C90       1.0  0.6514197237692948  0.06945152788519987  0.7411588308567086  1.0000
  C   C91       1.0  0.1514197243733448  0.43054847226447135  0.24115883045888553  1.0000
  C   C92       1.0  0.34858027637257455  0.9305484719991673  0.2588411692993444  1.0000
  C   C93       1.0  0.822362148003753  0.5544535632266797  0.8431659250398948  1.0000
  C   C94       1.0  0.6776378528840356  0.05445356349198373  0.656834074874388  1.0000
  C   C95       1.0  0.17763785213811625  0.4455464366576875  0.15683407511615813  1.0000
  C   C96       1.0  0.32236214725783374  0.9455464368073587  0.3431659252816649  1.0000
  N   N1        1.0  0.44003066926696927  0.27742594358815265  0.19214024469140087  1.0000
  N   N2        1.0  0.05996933004592095  0.7774259437378239  0.3078597550675887  1.0000
  N   N3        1.0  0.5599693307918403  0.7225740562962145  0.8078597548258186  1.0000
  N   N4        1.0  0.9400306700959483  0.22257405656151855  0.6921402450884644  1.0000
  N   N5        1.0  0.6637694254189377  0.46741863780662746  0.42316695091672685  1.0000
  N   N6        1.0  0.8362305749658495  0.9674186379562987  0.07683304935504057  1.0000
  N   N7        1.0  0.33623057472293155  0.5325813620777398  0.5768330492393261  1.0000
  N   N8        1.0  0.16376942517601983  0.03258136192806855  0.9231669508010124  1.0000
  N   N9        1.0  0.4308110153805294  0.23132837684860405  0.6284532752184341  1.0000
  N   N10       1.0  0.06918898451842195  0.7313283769982752  0.8715467248219044  1.0000
  N   N11       1.0  0.5691889847613398  0.7686716230357632  0.37154672493761887  1.0000
  N   N12       1.0  0.9308110156234473  0.2686716228860919  0.1284532753341486  1.0000
  N   N13       1.0  0.42366293045579484  0.2997203874449432  0.419987102541568  1.0000
  N   N14       1.0  0.07633706894015513  0.7997203875946145  0.08001289785625508  1.0000
  N   N15       1.0  0.5763370696860745  0.7002796124394239  0.5800128976144849  1.0000
  N   N16       1.0  0.923662931201714  0.20027961270472797  0.9199871022997979  1.0000
  N   N17       1.0  0.7720324754255293  0.5024697792751713  0.8633044560492091  1.0000
  N   N18       1.0  0.7279675254622593  0.0024697791255001785  0.6366955438650738  1.0000
  N   N19       1.0  0.22796752471634  0.4975302210241711  0.1366955441068438  1.0000
  N   N20       1.0  0.27203247467961  0.997530220758867  0.36330445629097924  1.0000
  N   N21       1.0  0.7566556897056438  0.4346670007456205  0.6547701392262953  1.0000
  N   N22       1.0  0.7433443097491157  0.9346670004803165  0.8452298606887473  1.0000
  N   N23       1.0  0.24334430900319634  0.5653329995537218  0.34522986093051733  1.0000
  N   N24       1.0  0.25665569030969393  0.06533299940405071  0.15477013882847224  1.0000
  O   O1        1.0  0.4825224015851233  0.2560191529470661  0.7900041240061331  1.0000
  O   O2        1.0  0.01747759831382818  0.7560191530967373  0.7099958760342054  1.0000
  O   O3        1.0  0.517477598556746  0.743980846937301  0.20999587614991996  1.0000
  O   O4        1.0  0.9825224018280411  0.2439808467876299  0.2900041241218475  1.0000
  O   O5        1.0  0.35066703776332037  0.17135396690997273  0.8104489152078768  1.0000
  O   O6        1.0  0.14933296356866013  0.6713539666446687  0.6895510848317022  1.0000
  O   O7        1.0  0.6493329623785489  0.8286460329743944  0.18955108494817632  1.0000
  O   O8        1.0  0.8506670364901494  0.3286460332396985  0.3104489146855173  1.0000
  O   O9        1.0  0.4133072378530679  0.3268795043647016  0.21000609278790516  1.0000
  O   O10       1.0  0.08669276145982237  0.8268795040993976  0.2899939069710844  1.0000
  O   O11       1.0  0.5866927622888014  0.6731204955196656  0.7899939073681477  1.0000
  O   O12       1.0  0.9133072385989872  0.17312049578496966  0.7100060925461351  1.0000
  O   O13       1.0  0.47096704312373716  0.24059344244428205  0.24706577776243466  1.0000
  O   O14       1.0  0.02903295770524192  0.7405934425939533  0.2529342226346287  1.0000
  O   O15       1.0  0.5290329570181321  0.7594065574400851  0.7529342223936183  1.0000
  O   O16       1.0  0.9709670424366273  0.2594065577053892  0.7470657775214242  1.0000
  O   O17       1.0  0.7573038774274287  0.4810469373915555  0.024758409232765927  1.0000
  O   O18       1.0  0.7426961229573583  0.9810469375412267  0.47524159103900154  1.0000
  O   O19       1.0  0.2426961227144406  0.5189530624928117  0.9752415909232871  1.0000
  O   O20       1.0  0.25730387718451087  0.01895306234314041  0.5247584091170514  1.0000
  O   O21       1.0  0.7418392890915717  0.5742367989042496  0.04369174888142956  1.0000
  O   O22       1.0  0.7581607112932154  0.07423679916955367  0.45630825139033787  1.0000
  O   O23       1.0  0.25816071105029753  0.4257632009801176  0.9563082512746234  1.0000
  O   O24       1.0  0.24183928884865386  0.9257632011297887  0.5436917487657151  1.0000
  O   O25       1.0  0.5596737585191804  0.42724306039020055  0.4381048590993764  1.0000
  O   O26       1.0  0.940326241782547  0.9272430601248964  0.06189514053355757  1.0000
  O   O27       1.0  0.4403262415396291  0.5727569399091419  0.561895140417843  1.0000
  O   O28       1.0  0.05967375835932228  0.0727569397594707  0.9381048596224955  1.0000
  O   O29       1.0  0.751728704398125  0.49512367541173613  0.4801338802003078  1.0000
  O   O30       1.0  0.7482712959036023  0.9951236751464322  0.019866119432626145  1.0000
  O   O31       1.0  0.24827129566068448  0.5048763248876063  0.5198661193169116  1.0000
  O   O32       1.0  0.25172870423826693  0.004876324737935097  0.9801338807234269  1.0000
  Cl  Cl1       1.0  0.5088510229093268  0.12163773468700691  0.9756717523027953  1.0000
  Cl  Cl2       1.0  0.9911489765454328  0.6216377348366781  0.5243282476122473  1.0000
  Cl  Cl3       1.0  0.4911489757995134  0.8783622651973604  0.024328247854017295  1.0000
  Cl  Cl4       1.0  0.008851023513376854  0.3783622650476891  0.4756717519049723  1.0000
  Cl  Cl5       1.0  0.8434873153397072  0.6185872858286477  0.215101906064768  1.0000
  Cl  Cl6       1.0  0.6565126849620202  0.11858728567897657  0.284898093568166  1.0000
  Cl  Cl7       1.0  0.15651268471910237  0.3814127140557194  0.7848980934524514  1.0000
  Cl  Cl8       1.0  0.343487315179849  0.8814127142053906  0.715101906587887  1.0000
  Cl  Cl9       1.0  0.45670566020461856  0.33822949564772625  0.6022220259385087  1.0000
  Cl  Cl10      1.0  0.0432943396943329  0.8382294957973975  0.8977779741018299  1.0000
  Cl  Cl11      1.0  0.5432943399372507  0.6617705042366409  0.39777797421754435  1.0000
  Cl  Cl12      1.0  0.9567056604475364  0.1617705040869697  0.10222202605422312  1.0000
  Cl  Cl13      1.0  0.6731449593725028  0.3989712645327207  0.8321021812622902  1.0000
  Cl  Cl14      1.0  0.8268550400822566  0.898971264682392  0.6678978186527524  1.0000
  Cl  Cl15      1.0  0.3268550407693663  0.6010287353516465  0.16789781889376276  1.0000
  Cl  Cl16      1.0  0.17314496005961272  0.10102873561695054  0.3321021815033006  1.0000
