data_image0
_chemical_formula_structural       H44C8S4Cl20
_chemical_formula_sum              "H44 C8 S4 Cl20"
_cell_length_a       7.246701849159819
_cell_length_b       12.453099461422653
_cell_length_c       12.410828695128057
_cell_angle_alpha    90.0
_cell_angle_beta     93.0524659191685
_cell_angle_gamma    90.0

_space_group_name_H-M_alt    "P 1"
_space_group_IT_number       1

loop_
  _space_group_symop_operation_xyz
  'x, y, z'

loop_
  _atom_site_type_symbol
  _atom_site_label
  _atom_site_symmetry_multiplicity
  _atom_site_fract_x
  _atom_site_fract_y
  _atom_site_fract_z
  _atom_site_occupancy
  H   H1        1.0  0.49198286746157743  0.7269168914969742  0.07678830194487075  1.0000
  H   H2        1.0  0.008017133311515592  0.22691689155409475  0.4232116985695611  1.0000
  H   H3        1.0  0.5080171326348077  0.2730831083887848  0.923211698274807  1.0000
  H   H4        1.0  0.9919828667848696  0.7730831083316643  0.5767883016501166  1.0000
  H   H5        1.0  0.33631038252379414  0.8710827785166304  0.9538215429583731  1.0000
  H   H6        1.0  0.1636896168741775  0.37108277857375094  0.5461784564691364  1.0000
  H   H7        1.0  0.663689617502932  0.1289172213691286  0.04617845645441508  1.0000
  H   H8        1.0  0.8363103831525486  0.6289172213120081  0.45382154294365173  1.0000
  H   H9        1.0  0.34807632617250905  0.04610406523922599  0.13313618414032768  1.0000
  H   H10       1.0  0.15192367460058398  0.5461040651821055  0.36686381637410415  1.0000
  H   H11       1.0  0.6519236739238761  0.9538959346465331  0.86686381607935  1.0000
  H   H12       1.0  0.8480763254958011  0.4538959347036536  0.6331361838455735  1.0000
  H   H13       1.0  0.4970880927025386  0.9192109462757219  0.27303963474299947  1.0000
  H   H14       1.0  0.0029119066904124305  0.4192109463328424  0.2269603657691359  1.0000
  H   H15       1.0  0.5029119073938465  0.0807890536100372  0.7269603654766782  1.0000
  H   H16       1.0  0.9970880934059727  0.5807890535529168  0.7730396344505419  1.0000
  H   H17       1.0  0.7613745548284231  0.8885141618178284  0.10658673755734298  1.0000
  H   H18       1.0  0.7386254444469158  0.3885141618749489  0.3934132618384274  1.0000
  H   H19       1.0  0.2386254451983031  0.11148583806793062  0.8934132618554452  1.0000
  H   H20       1.0  0.2613745555798105  0.6114858380108101  0.6065867375743608  1.0000
  H   H21       1.0  0.9080986413783286  0.8430361278749998  0.2996055426565713  1.0000
  H   H22       1.0  0.591901357966669  0.3430361279321203  0.20039445754608862  1.0000
  H   H23       1.0  0.09190135871805644  0.15696387201075923  0.7003944575631063  1.0000
  H   H24       1.0  0.4080986421297161  0.6569638719536387  0.7996055426735892  1.0000
  H   H25       1.0  0.9506891703658841  0.9840798291191031  0.27675365201937  1.0000
  H   H26       1.0  0.5493108289791138  0.4840798291762236  0.22324634818328992  1.0000
  H   H27       1.0  0.04931082973050108  0.01592017076665596  0.7232463482003078  1.0000
  H   H28       1.0  0.4506891711172715  0.5159201707095354  0.7767536520363878  1.0000
  H   H29       1.0  0.13752726190539902  0.8906792758188468  0.2754711214579968  1.0000
  H   H30       1.0  0.36247273886769404  0.39067927587596724  0.22452887905643504  1.0000
  H   H31       1.0  0.8624727381909861  0.10932072406691229  0.7245288787616808  1.0000
  H   H32       1.0  0.6375272612286911  0.6093207240097919  0.7754711211632426  1.0000
  H   H33       1.0  0.9029090574739829  0.6984467005137333  0.15226503719406762  1.0000
  H   H34       1.0  0.5970909418710149  0.19844670057085365  0.3477349630085923  1.0000
  H   H35       1.0  0.0970909426224023  0.3015532993720259  0.8477349630256101  1.0000
  H   H36       1.0  0.40290905822537026  0.8015532993149055  0.6522650372110853  1.0000
  H   H37       1.0  0.9485679438982981  0.7242970971155783  0.012797063355160771  1.0000
  H   H38       1.0  0.5514320553770407  0.22429709717269877  0.48720293604060966  1.0000
  H   H39       1.0  0.05143205612842807  0.2757029027701807  0.9872029360576274  1.0000
  H   H40       1.0  0.4485679446496855  0.7757029035160733  0.5127970633721786  1.0000
  H   H41       1.0  0.13375968338497365  0.7286878120672562  0.11424780869011672  1.0000
  H   H42       1.0  0.36624031593831846  0.2286878121243767  0.3857521910151292  1.0000
  H   H43       1.0  0.8662403166417525  0.2713121878185029  0.8857521907226715  1.0000
  H   H44       1.0  0.6337596841580667  0.7713121877613824  0.6142478092045486  1.0000
  C   C1        1.0  0.9893025935860196  0.9018173166278579  0.2567075751766204  1.0000
  C   C2        1.0  0.5106974057589782  0.4018173166849784  0.2432924250260395  1.0000
  C   C3        1.0  0.010697406510365598  0.09818268325790117  0.7432924250430573  1.0000
  C   C4        1.0  0.4893025943374069  0.5981826832007807  0.7567075751936383  1.0000
  C   C5        1.0  0.9862341580601565  0.7437625973110058  0.09709529004466005  1.0000
  C   C6        1.0  0.5137658426649833  0.24376259736812625  0.40290471016029633  1.0000
  C   C7        1.0  0.013765842036228777  0.2562374025747533  0.9029047101750177  1.0000
  C   C8        1.0  0.4862341574314018  0.7562374025176328  0.5970952900593813  1.0000
  S   S1        1.0  0.9527708919488499  0.8858337801101739  0.11316043677178204  1.0000
  S   S2        1.0  0.5472291087762898  0.3858337793642815  0.3868395634331743  1.0000
  S   S3        1.0  0.0472291081475353  0.11416622057859811  0.8868395634478957  1.0000
  S   S4        1.0  0.45277089132009535  0.6141662205214777  0.6131604367865033  1.0000
  Cl  Cl1       1.0  0.46012485304608136  0.8897001661572103  0.10872605220739565  1.0000
  Cl  Cl2       1.0  0.03987514772701168  0.38970016621433073  0.39127394830703616  1.0000
  Cl  Cl3       1.0  0.5398751470503038  0.11029983372854886  0.891273948012282  1.0000
  Cl  Cl4       1.0  0.9601248523693735  0.6102998336714285  0.6087260519126415  1.0000
  Cl  Cl5       1.0  0.5214847897198437  0.626015276289249  0.050700088573291516  1.0000
  Cl  Cl6       1.0  0.978515211005296  0.12601527634636944  0.4492999116316649  1.0000
  Cl  Cl7       1.0  0.4785152103765415  0.3739847235965101  0.9492999116463862  1.0000
  Cl  Cl8       1.0  0.021484789091089126  0.8739847235393896  0.5507000885880128  1.0000
  Cl  Cl9       1.0  0.2374496515618278  0.8564654761684163  0.8622913297349961  1.0000
  Cl  Cl10      1.0  0.26255034790580284  0.3564654762255366  0.6377086704994029  1.0000
  Cl  Cl11      1.0  0.7625503485345574  0.1435345237173429  0.13770867048468163  1.0000
  Cl  Cl12      1.0  0.7374496521905822  0.6435345236602225  0.3622913297202748  1.0000
  Cl  Cl13      1.0  0.2570647314532849  0.1357834381101801  0.14927864720209771  1.0000
  Cl  Cl14      1.0  0.24293526925014913  0.6357834380530596  0.3507213525054446  1.0000
  Cl  Cl15      1.0  0.7429352685734413  0.864216561775579  0.8507213522106905  1.0000
  Cl  Cl16      1.0  0.757064730846236  0.36421656183269946  0.649278647714233  1.0000
  Cl  Cl17      1.0  0.5192437585499936  0.9463219447099568  0.3755423962543309  1.0000
  Cl  Cl18      1.0  0.9807562421751461  0.4463219447670772  0.1244576039506255  1.0000
  Cl  Cl19      1.0  0.48075624154639146  0.053678055175802375  0.6244576039653468  1.0000
  Cl  Cl20      1.0  0.019243757921239064  0.5536780551186818  0.8755423962690522  1.0000
