data_image0
_chemical_formula_structural       H60C60N4O12
_chemical_formula_sum              "H60 C60 N4 O12"
_cell_length_a       13.432300269960935
_cell_length_b       5.35940643756354
_cell_length_c       17.96397664724193
_cell_angle_alpha    90.0
_cell_angle_beta     107.65394161990044
_cell_angle_gamma    90.0

_space_group_name_H-M_alt    "P 1"
_space_group_IT_number       1

loop_
  _space_group_symop_operation_xyz
  'x, y, z'

loop_
  _atom_site_type_symbol
  _atom_site_label
  _atom_site_symmetry_multiplicity
  _atom_site_fract_x
  _atom_site_fract_y
  _atom_site_fract_z
  _atom_site_occupancy
  H   H1        1.0  0.4021866083704105  0.8116761250855266  0.647746407511286  1.0000
  H   H2        1.0  0.5978133916192874  0.31167612485821966  0.8522535924103429  1.0000
  H   H3        1.0  0.5978133914708372  0.18832387536908723  0.35225359271042056  1.0000
  H   H4        1.0  0.4021866090091625  0.6883238737305158  0.14774640743746373  1.0000
  H   H5        1.0  0.5678477986713892  0.7067044688855241  0.7447082496920451  1.0000
  H   H6        1.0  0.4321522013183086  0.20670446865821715  0.7552917502295838  1.0000
  H   H7        1.0  0.43215220117581593  0.2932955315690897  0.255291749974359  1.0000
  H   H8        1.0  0.567847798522939  0.7932955317963967  0.2447082499921227  1.0000
  H   H9        1.0  0.6670484387141654  0.32742463935945804  0.7287550952359123  1.0000
  H   H10       1.0  0.3329515612755325  0.8274246395867649  0.7712449046857167  1.0000
  H   H11       1.0  0.33295156112708235  0.6725753610951558  0.2712449049857943  1.0000
  H   H12       1.0  0.6670484385716726  0.17257536086784883  0.22875509498068738  1.0000
  H   H13       1.0  0.5941290805133603  0.05081520746237884  0.6131911570137087  1.0000
  H   H14       1.0  0.4058709194763375  0.5508152076896857  0.8868088429079202  1.0000
  H   H15       1.0  0.4058709201150895  0.9491847929922349  0.38680884283409794  1.0000
  H   H16       1.0  0.5941290803649102  0.44918479276492806  0.11319115731378637  1.0000
  H   H17       1.0  0.42643542330164624  0.15224346007445838  0.5157914831129335  1.0000
  H   H18       1.0  0.5735645766880515  0.6522434603017653  0.9842085168086956  1.0000
  H   H19       1.0  0.5735645765455588  0.8477565403801555  0.4842085165534706  1.0000
  H   H20       1.0  0.42643542315319605  0.3477565401528485  0.01579148341301109  1.0000
  H   H21       1.0  0.3164794147957319  0.3944062434199252  0.4075513123844869  1.0000
  H   H22       1.0  0.6835205849089805  0.8944062436472321  0.09244868702669223  1.0000
  H   H23       1.0  0.6835205850514732  0.6055937570346885  0.5924486872819171  1.0000
  H   H24       1.0  0.3164794149382246  0.10559375680738164  0.9075513126397118  1.0000
  H   H25       1.0  0.18462151696892554  0.43878109402523174  0.40718511452831074  1.0000
  H   H26       1.0  0.8153784827298294  0.9387810942525388  0.09281488543817085  1.0000
  H   H27       1.0  0.8153784828723222  0.5612189045635038  0.5928148856933958  1.0000
  H   H28       1.0  0.1846215171173757  0.06121890620207514  0.9071851142282331  1.0000
  H   H29       1.0  0.2587955745299652  0.18525167694715056  0.45914262267137274  1.0000
  H   H30       1.0  0.7412044251687898  0.6852516771744575  0.040857377295108924  1.0000
  H   H31       1.0  0.7412044253112824  0.8147483235074632  0.5408573775503338  1.0000
  H   H32       1.0  0.25879557467841535  0.31474832328015634  0.9591426223712951  1.0000
  H   H33       1.0  0.1237786486548205  0.9262827437765385  0.48966952839138994  1.0000
  H   H34       1.0  0.8762213518251791  0.42628274541510996  0.0103304717564943  1.0000
  H   H35       1.0  0.8762213519736294  0.07371725481219692  0.5103304714564167  1.0000
  H   H36       1.0  0.12377864801606848  0.5737172550395038  0.9896695284652121  1.0000
  H   H37       1.0  0.021525577572121028  0.5650659854371411  0.559907581439705  1.0000
  H   H38       1.0  0.9784744224175769  0.0650659852098343  0.9400924184819238  1.0000
  H   H39       1.0  0.9784744230503714  0.4349340150174726  0.4400924189634042  1.0000
  H   H40       1.0  0.021525577429628302  0.9349340152447795  0.05990758118448009  1.0000
  H   H41       1.0  0.9801611352748931  0.8925499821160536  0.6435182913556373  1.0000
  H   H42       1.0  0.019838864714804734  0.3925499818887467  0.8564817085659916  1.0000
  H   H43       1.0  0.01983886534759932  0.1074500183385602  0.35648170904747184  1.0000
  H   H44       1.0  0.9801611351324003  0.6074500185658671  0.14351829110041245  1.0000
  H   H45       1.0  0.07017931874682404  0.8950448778019421  0.7862815426026297  1.0000
  H   H46       1.0  0.9298206812428739  0.39504487757463513  0.7137184573189992  1.0000
  H   H47       1.0  0.9298206818816258  0.1049551207867935  0.21371845724517702  1.0000
  H   H48       1.0  0.07017931859837387  0.6049551210141004  0.2862815429027073  1.0000
  H   H49       1.0  0.203281494904349  0.5740808251517354  0.8456447622356651  1.0000
  H   H50       1.0  0.7967185050853488  0.07408082492442856  0.6543552376859638  1.0000
  H   H51       1.0  0.7967185049368987  0.4259191753028783  0.1543552379860415  1.0000
  H   H52       1.0  0.20328149476185628  0.9259191755301852  0.3456447619804402  1.0000
  H   H53       1.0  0.2485042170763271  0.24830248563961851  0.7613002285968135  1.0000
  H   H54       1.0  0.7514957829133706  0.7483024858669254  0.7386997713248153  1.0000
  H   H55       1.0  0.7514957827649205  0.7516975129491169  0.23869977162489306  1.0000
  H   H56       1.0  0.2485042169338344  0.25169751458768835  0.2613002283415886  1.0000
  H   H57       1.0  0.24968832010001  0.9189864507158136  0.5942507227580043  1.0000
  H   H58       1.0  0.7503116798896879  0.41898645048850663  0.9057492771636246  1.0000
  H   H59       1.0  0.7503116797412378  0.08101354973880023  0.4057492774637024  1.0000
  H   H60       1.0  0.24968831995751722  0.5810135499661071  0.09425072250277933  1.0000
  C   C1        1.0  0.4002259381483959  0.4894968035289817  0.5735343815686936  1.0000
  C   C2        1.0  0.5997740618353444  0.9894968037562887  0.9264656189082378  1.0000
  C   C3        1.0  0.5997740616928517  0.5105031950597538  0.4264656186530129  1.0000
  C   C4        1.0  0.40022593800590317  0.010503194832446897  0.07353438131346875  1.0000
  C   C5        1.0  0.4424777201499331  0.6435895915309756  0.6391071158690638  1.0000
  C   C6        1.0  0.5575222798397648  0.14358959130366875  0.8608928840525653  1.0000
  C   C7        1.0  0.5575222804785167  0.3564104089236382  0.36089288397874286  1.0000
  C   C8        1.0  0.44247772000148294  0.8564104091509451  0.13910711616914137  1.0000
  C   C9        1.0  0.5373492815166913  0.5853868495605777  0.6941884127749284  1.0000
  C   C10       1.0  0.46265071847300654  0.08538684933327087  0.8058115871467006  1.0000
  C   C11       1.0  0.4626507191117586  0.414613150894036  0.30581158707287837  1.0000
  C   C12       1.0  0.5373492813741986  0.9146131511213429  0.19418841251970342  1.0000
  C   C13       1.0  0.5930042916623137  0.3727600832804565  0.6853580421846286  1.0000
  C   C14       1.0  0.40699570832738413  0.8727600835077635  0.8146419577370003  1.0000
  C   C15       1.0  0.40699570818489145  0.6272399171741573  0.3146419574817755  1.0000
  C   C16       1.0  0.5930042922951083  0.12723991694685036  0.18535804266610884  1.0000
  C   C17       1.0  0.5523662232400686  0.21891425732834996  0.6206124575413438  1.0000
  C   C18       1.0  0.4476337767496293  0.7189142575556569  0.8793875423802853  1.0000
  C   C19       1.0  0.44763377660713655  0.7810857431262638  0.3793875421250604  1.0000
  C   C20       1.0  0.5523662230916184  0.281085742898957  0.12061245784142129  1.0000
  C   C21       1.0  0.4572388141624197  0.27639037219080814  0.565402055957706  1.0000
  C   C22       1.0  0.5427611858272783  0.776390372418115  0.9345979439639229  1.0000
  C   C23       1.0  0.5427611856847855  0.7236096282638056  0.43459794370869803  1.0000
  C   C24       1.0  0.45723881401396943  0.22360962803649875  0.0654020562577836  1.0000
  C   C25       1.0  0.29967330914280516  0.5425955866340326  0.5137981436587735  1.0000
  C   C26       1.0  0.7003266908468927  0.042595586406725755  0.9862018562628554  1.0000
  C   C27       1.0  0.7003266907044001  0.4574044138205811  0.48620185600763055  1.0000
  C   C28       1.0  0.29967330899435496  0.9574044140478881  0.013798143958851131  1.0000
  C   C29       1.0  0.2624838612031102  0.3814849225970391  0.44272055421768924  1.0000
  C   C30       1.0  0.7375161384956448  0.8814849209584676  0.0572794457487924  1.0000
  C   C31       1.0  0.7375161386440949  0.6185150778575748  0.5572794454487149  1.0000
  C   C32       1.0  0.2624838613456029  0.11851507763026782  0.9427205544729143  1.0000
  C   C33       1.0  0.13775409744925673  0.3871495648207033  0.6554836104032115  1.0000
  C   C34       1.0  0.8622459025404411  0.88714956504801  0.8445163895184175  1.0000
  C   C35       1.0  0.8622459023979485  0.6128504356339105  0.3445163892631926  1.0000
  C   C36       1.0  0.13775409730080657  0.11285043540660364  0.15548361070328903  1.0000
  C   C37       1.0  0.06172312799157432  0.5678447931602536  0.6222873540371998  1.0000
  C   C38       1.0  0.9382768719981235  0.06784479293294672  0.8777126458844291  1.0000
  C   C39       1.0  0.9382768718556308  0.4321552054284819  0.3777126456292042  1.0000
  C   C40       1.0  0.06172312784312414  0.9321552056557887  0.1222873543372774  1.0000
  C   C41       1.0  0.03853018775398544  0.7509944705424819  0.6693176758292821  1.0000
  C   C42       1.0  0.9614698122357125  0.2509944703151751  0.8306823240923468  1.0000
  C   C43       1.0  0.9614698128744644  0.24900552991213185  0.33068232401852443  1.0000
  C   C44       1.0  0.03853018760553527  0.7490055301394388  0.16931767612935986  1.0000
  C   C45       1.0  0.08972502739916208  0.7531442459204504  0.7495816554100012  1.0000
  C   C46       1.0  0.9102749725845782  0.2531442475590218  0.7504183450669304  1.0000
  C   C47       1.0  0.9102749724420857  0.24685575266828508  0.25041834481170544  1.0000
  C   C48       1.0  0.08972502725666938  0.7468557528955919  0.24958165515477626  1.0000
  C   C49       1.0  0.1649742609483731  0.5721788272124573  0.7828338488526863  1.0000
  C   C50       1.0  0.8350257390413248  0.07217882698515041  0.7171661510689427  1.0000
  C   C51       1.0  0.8350257388928747  0.4278211732421565  0.2171661513690202  1.0000
  C   C52       1.0  0.16497426158712514  0.9278211734694634  0.2828338487788641  1.0000
  C   C53       1.0  0.18987636876794164  0.3900412320567201  0.7360502830209623  1.0000
  C   C54       1.0  0.8101236312217562  0.8900412304181488  0.7639497169006666  1.0000
  C   C55       1.0  0.8101236310792634  0.6099587683978938  0.26394971664544165  1.0000
  C   C56       1.0  0.18987636861949148  0.10995876817058683  0.23605028332103997  1.0000
  C   C57       1.0  0.1591859724656788  0.19288359672716912  0.603912702714939  1.0000
  C   C58       1.0  0.8408140275240191  0.692883596954476  0.89608729720669  1.0000
  C   C59       1.0  0.8408140281568136  0.8071164037274446  0.3960872976881702  1.0000
  C   C60       1.0  0.15918597232318604  0.30711640350013775  0.1039127024597141  1.0000
  N   N1        1.0  0.24580754642060323  0.731748266470881  0.5255167765026664  1.0000
  N   N2        1.0  0.7541924535690946  0.23174826810945234  0.9744832234189625  1.0000
  N   N3        1.0  0.7541924534206444  0.2682517321178546  0.4744832237190402  1.0000
  N   N4        1.0  0.24580754627811052  0.7682517323451614  0.025516776247441475  1.0000
  O   O1        1.0  0.152850962829627  0.7770010519846172  0.4676995612699196  1.0000
  O   O2        1.0  0.8471490368691279  0.27700105175731027  0.03230043869656206  1.0000
  O   O3        1.0  0.8471490370116206  0.2229989484699966  0.5323004389517869  1.0000
  O   O4        1.0  0.15285096297211975  0.7229989486973035  0.9676995615251444  1.0000
  O   O5        1.0  0.1012174550165  0.16331910822533557  0.5355692108857372  1.0000
  O   O6        1.0  0.8987825449672403  0.6633191084526424  0.9644307895911945  1.0000
  O   O7        1.0  0.8987825448247477  0.8366808922292782  0.4644307893359695  1.0000
  O   O8        1.0  0.1012174548740073  0.3366808920019713  0.03556921063051217  1.0000
  O   O9        1.0  0.2429955073625193  0.05342308021150253  0.6351642806733281  1.0000
  O   O10       1.0  0.7570044926271785  0.5534230804388095  0.8648357192483006  1.0000
  O   O11       1.0  0.7570044924846857  0.9465769202431112  0.3648357189930758  1.0000
  O   O12       1.0  0.2429955072140691  0.4465769200158044  0.13516428097340583  1.0000
