data_image0
_chemical_formula_structural       H116C108N4O20P8
_chemical_formula_sum              "H116 C108 N4 O20 P8"
_cell_length_a       9.42797241200497
_cell_length_b       11.217545777704478
_cell_length_c       22.99346996542739
_cell_angle_alpha    90.0
_cell_angle_beta     91.98946964427226
_cell_angle_gamma    90.0

_space_group_name_H-M_alt    "P 1"
_space_group_IT_number       1

loop_
  _space_group_symop_operation_xyz
  'x, y, z'

loop_
  _atom_site_type_symbol
  _atom_site_label
  _atom_site_symmetry_multiplicity
  _atom_site_fract_x
  _atom_site_fract_y
  _atom_site_fract_z
  _atom_site_occupancy
  H   H1        1.0  0.3929410213899423  0.6774150960099777  0.7664689452668035  1.0000
  H   H2        1.0  0.6070589782261696  0.17741509590765941  0.7335310544302194  1.0000
  H   H3        1.0  0.6070589782485666  0.32258490330319833  0.23353105447490993  1.0000
  H   H4        1.0  0.3929410214123393  0.8225849034055166  0.26646894531149407  1.0000
  H   H5        1.0  0.29674080552154564  0.5850784610163686  0.8144999621302909  1.0000
  H   H6        1.0  0.7032591941314573  0.08507846091405026  0.6855000380019003  1.0000
  H   H7        1.0  0.7032591941538543  0.4149215391882681  0.18550003804659088  1.0000
  H   H8        1.0  0.2967408055070515  0.9149215383991258  0.31449996173981315  1.0000
  H   H9        1.0  0.5018550247773883  0.4968553434457695  0.8529593391098754  1.0000
  H   H10       1.0  0.4981449748756147  0.9968553426566272  0.6470406610223157  1.0000
  H   H11       1.0  0.49814497489801174  0.5031446567588672  0.14704066106700642  1.0000
  H   H12       1.0  0.5018550247997853  0.0031446566565488648  0.35295933915456607  1.0000
  H   H13       1.0  0.6397980588024905  0.6583567516772169  0.8909728722102689  1.0000
  H   H14       1.0  0.36020194085051255  0.1583567515748985  0.6090271279219223  1.0000
  H   H15       1.0  0.3602019408729096  0.34164324852741984  0.10902712796661297  1.0000
  H   H16       1.0  0.6397980588248874  0.841643248629738  0.3909728722549594  1.0000
  H   H17       1.0  0.5644472404108394  0.7565694981934562  0.8373135564109729  1.0000
  H   H18       1.0  0.4355527592421637  0.2565694980911378  0.6626864437212183  1.0000
  H   H19       1.0  0.43555275926456055  0.24343050201118055  0.16268644376590893  1.0000
  H   H20       1.0  0.5644472404332365  0.7434305012220384  0.3373135564556635  1.0000
  H   H21       1.0  0.3603388500698429  0.8654493141713443  0.8592951310352368  1.0000
  H   H22       1.0  0.639661149546269  0.365449314069026  0.640704868661786  1.0000
  H   H23       1.0  0.639661149568666  0.1345506860332924  0.1407048687064766  1.0000
  H   H24       1.0  0.36033885009223987  0.6345506852441501  0.3592951310799275  1.0000
  H   H25       1.0  0.1660596827379816  0.9129292434316811  0.9264523493580746  1.0000
  H   H26       1.0  0.8339403179756932  0.4129292433293629  0.5735476507740974  1.0000
  H   H27       1.0  0.8339403179611992  0.08707075588149485  0.07354765038361954  1.0000
  H   H28       1.0  0.16605968276037858  0.5870707559838132  0.42645234940276533  1.0000
  H   H29       1.0  0.12574601260097876  0.7836971262887945  0.011935563591580125  1.0000
  H   H30       1.0  0.8742539870599272  0.28369712618647613  0.48806443619482387  1.0000
  H   H31       1.0  0.8742539870375301  0.21630287391584221  0.9880644361501333  1.0000
  H   H32       1.0  0.12574601261547286  0.7163028740181605  0.5119355639820579  1.0000
  H   H33       1.0  0.27848938347859475  0.6041550312609333  0.02951605683705662  1.0000
  H   H34       1.0  0.7215106162192023  0.104155031158615  0.4704839433845158  1.0000
  H   H35       1.0  0.7215106161968052  0.3958449680522428  0.9704839433398252  1.0000
  H   H36       1.0  0.2784893834561977  0.8958449681545612  0.529516056792366  1.0000
  H   H37       1.0  0.4668479593661946  0.5550706298320253  0.9612541495713446  1.0000
  H   H38       1.0  0.5331520402868084  0.05507062972970687  0.5387458505608466  1.0000
  H   H39       1.0  0.5331520403092054  0.4449293703726115  0.03874585060553722  1.0000
  H   H40       1.0  0.4668479593885916  0.9449293704749299  0.46125414961603517  1.0000
  H   H41       1.0  0.6240380944022328  0.46517743215912466  0.7671717127292124  1.0000
  H   H42       1.0  0.3759619052138791  0.965177432261443  0.7328282869678103  1.0000
  H   H43       1.0  0.3759619052362761  0.534822568045512  0.232828287012501  1.0000
  H   H44       1.0  0.6240380944246298  0.034822567943193716  0.26717171277390306  1.0000
  H   H45       1.0  0.6535049450934576  0.6203265863938354  0.7576897521742342  1.0000
  H   H46       1.0  0.34649505562021726  0.12032658629151699  0.7423102479579378  1.0000
  H   H47       1.0  0.3464950556426143  0.37967341381080133  0.2423102480026284  1.0000
  H   H48       1.0  0.6535049451158546  0.8796734139131198  0.2576897522189249  1.0000
  H   H49       1.0  0.854348766401635  0.7112044673672449  0.7958926711540832  1.0000
  H   H50       1.0  0.1456512332144769  0.2112044672649265  0.7041073285429394  1.0000
  H   H51       1.0  0.14565123323687387  0.28879553283739184  0.20410732858763014  1.0000
  H   H52       1.0  0.8543487664240319  0.7887955329397102  0.29589267119877394  1.0000
  H   H53       1.0  0.09104163231153953  0.6967086121042164  0.8466431573378154  1.0000
  H   H54       1.0  0.9089583673414634  0.19670861200189804  0.6533568427943758  1.0000
  H   H55       1.0  0.9089583673269693  0.3032913881004203  0.15335684240389796  1.0000
  H   H56       1.0  0.09104163233393653  0.8032913882027386  0.3466431573825061  1.0000
  H   H57       1.0  0.15437925465355815  0.5150627369387333  0.9035439744049204  1.0000
  H   H58       1.0  0.8456207449994448  0.01506273683641493  0.5964560257272707  1.0000
  H   H59       1.0  0.8456207450218419  0.4849372632659034  0.09645602577196138  1.0000
  H   H60       1.0  0.15437925467595515  0.9849372624767612  0.40354397444961104  1.0000
  H   H61       1.0  0.9774337265359095  0.35251272946525036  0.9135014084291795  1.0000
  H   H62       1.0  0.02256627417776539  0.8525127295675686  0.5864985917029926  1.0000
  H   H63       1.0  0.022566274163271276  0.6474872707393863  0.08649859131251483  1.0000
  H   H64       1.0  0.9774337265583065  0.147487270637068  0.41350140847387  1.0000
  H   H65       1.0  0.7402693354658068  0.36785581015426183  0.8626437479294903  1.0000
  H   H66       1.0  0.25973066418719626  0.8678558102565802  0.6373562522027009  1.0000
  H   H67       1.0  0.25973066420959323  0.6321441900503749  0.13735625224739154  1.0000
  H   H68       1.0  0.7402693354882037  0.13214418994805652  0.3626437479741809  1.0000
  H   H69       1.0  0.11111690432204657  0.3509010418146474  0.7634854121653432  1.0000
  H   H70       1.0  0.8888830963916283  0.8509010419169657  0.7365145879668288  1.0000
  H   H71       1.0  0.8888830964140252  0.6490989583899894  0.23651458801151937  1.0000
  H   H72       1.0  0.11111690434444356  0.149098958287671  0.26348541221003385  1.0000
  H   H73       1.0  0.8573264167024416  0.3670718008732407  0.7333067231659401  1.0000
  H   H74       1.0  0.14267358401123323  0.867071800975559  0.766693276966232  1.0000
  H   H75       1.0  0.1426735840336302  0.632928199331396  0.2666932770109225  1.0000
  H   H76       1.0  0.8573264167248387  0.13292819922907767  0.23330672321063073  1.0000
  H   H77       1.0  0.7761899994424037  0.5310486035046994  0.6660114368069769  1.0000
  H   H78       1.0  0.22381000021059924  0.03104860340238101  0.8339885633252141  1.0000
  H   H79       1.0  0.2238100002329963  0.4689513958084767  0.3339885633699049  1.0000
  H   H80       1.0  0.7761899994648007  0.968951395910795  0.16601143685166753  1.0000
  H   H81       1.0  0.9493284729937285  0.6714883753780782  0.6272402037388894  1.0000
  H   H82       1.0  0.050671527683055176  0.17148837527575975  0.8727597959581141  1.0000
  H   H83       1.0  0.050671527705452156  0.32851162393509803  0.3727597960028049  1.0000
  H   H84       1.0  0.9493284730161256  0.8285116240374163  0.12724020378358  1.0000
  H   H85       1.0  0.20790080405529615  0.6472657561541784  0.6518454385968616  1.0000
  H   H86       1.0  0.7920991955977069  0.14726575605186001  0.8481545615353296  1.0000
  H   H87       1.0  0.7920991955832128  0.35273424405045833  0.3481545611448518  1.0000
  H   H88       1.0  0.20790080407769312  0.8527342441527767  0.1518454386415522  1.0000
  H   H89       1.0  0.445412539465006  0.6097216053794994  0.6412653378331625  1.0000
  H   H90       1.0  0.554587461248669  0.10972160527718108  0.8587346622990095  1.0000
  H   H91       1.0  0.554587461271066  0.39027839393367675  0.35873466234370005  1.0000
  H   H92       1.0  0.44541253948740295  0.8902783940359951  0.14126533787785317  1.0000
  H   H93       1.0  0.6505694802916311  0.7925181823344645  0.6964387360492739  1.0000
  H   H94       1.0  0.34943051932448077  0.2925181822321461  0.8035612636477487  1.0000
  H   H95       1.0  0.34943051934687774  0.20748181787017222  0.3035612636924395  1.0000
  H   H96       1.0  0.6505694803140281  0.7074818179724905  0.19643873609396456  1.0000
  H   H97       1.0  0.5672699334319621  0.5466376328222855  0.5397194823787542  1.0000
  H   H98       1.0  0.43273006728171276  0.04663763271996717  0.9602805177534178  1.0000
  H   H99       1.0  0.4327300673041097  0.45336236738235114  0.46028051779810847  1.0000
  H   H100      1.0  0.567269933454359  0.9533623665932089  0.039719482423444814  1.0000
  H   H101      1.0  0.700092349001699  0.4877391631308872  0.4527546144509191  1.0000
  H   H102      1.0  0.29990765069609787  0.9877391632332057  0.04724538577065341  1.0000
  H   H103      1.0  0.2999076506737009  0.5122608370737495  0.5472453857259628  1.0000
  H   H104      1.0  0.7000923489793021  0.01226083697143111  0.9527546144062284  1.0000
  H   H105      1.0  0.8685331626504035  0.6307222845537463  0.40913454936740645  1.0000
  H   H106      1.0  0.13146683807117415  0.130722284451428  0.09086545041897837  1.0000
  H   H107      1.0  0.13146683804877718  0.36927771565089035  0.5908654503742877  1.0000
  H   H108      1.0  0.8685331626280066  0.869277714861748  0.9091345493227159  1.0000
  H   H109      1.0  0.8993189786383288  0.8339812152667161  0.4515719380249193  1.0000
  H   H110      1.0  0.10068102212014014  0.3339812160558583  0.04842806219663399  1.0000
  H   H111      1.0  0.10068102209774317  0.1660187840464601  0.5484280621519434  1.0000
  H   H112      1.0  0.8993189786159317  0.6660187841487785  0.9515719379802285  1.0000
  H   H113      1.0  0.7593417387907873  0.89463236423303  0.5363272390772253  1.0000
  H   H114      1.0  0.24065826086221573  0.39463236413071157  0.9636727610549658  1.0000
  H   H115      1.0  0.2406582608846127  0.10536763597160675  0.46367276109965644  1.0000
  H   H116      1.0  0.7593417387762931  0.6053676360739252  0.036327238686747636  1.0000
  C   C1        1.0  0.389099377755234  0.5887632634516887  0.786853223430177  1.0000
  C   C2        1.0  0.6109006229584408  0.08876326334937035  0.7131467767019948  1.0000
  C   C3        1.0  0.6109006229808378  0.411236736752948  0.21314677674668556  1.0000
  C   C4        1.0  0.389099377777631  0.9112367359638057  0.2868532234748677  1.0000
  C   C5        1.0  0.5430977508125315  0.6799296397933482  0.8653488988317609  1.0000
  C   C6        1.0  0.4569022499011434  0.17992964058249045  0.634651101300411  1.0000
  C   C7        1.0  0.4569022499235404  0.32007035951982793  0.1346511013451017  1.0000
  C   C8        1.0  0.5430977507980373  0.8200703596221462  0.36534889844128315  1.0000
  C   C9        1.0  0.4232773825513595  0.7052951810301433  0.9049113179144794  1.0000
  C   C10       1.0  0.5767226181254241  0.20529518181928555  0.5950886817825242  1.0000
  C   C11       1.0  0.5767226181478212  0.2947048182830328  0.09508868182721482  1.0000
  C   C12       1.0  0.42327738257375647  0.7947048183853511  0.40491131795917007  1.0000
  C   C13       1.0  0.33831403952138756  0.8064151641778406  0.8956389683571528  1.0000
  C   C14       1.0  0.6616859611553962  0.3064151640755223  0.6043610313398509  1.0000
  C   C15       1.0  0.6616859611777932  0.19358483513533548  0.1043610313845414  1.0000
  C   C16       1.0  0.3383140395437845  0.6935848352376538  0.3956389684018435  1.0000
  C   C17       1.0  0.2311211311206197  0.8338863308756832  0.9339118319789292  1.0000
  C   C18       1.0  0.7688788684954923  0.3338863307733649  0.5660881677180934  1.0000
  C   C19       1.0  0.7688788685178892  0.16611366932895347  0.06608816776278413  1.0000
  C   C20       1.0  0.23112113114301666  0.6661136694312718  0.4339118320236199  1.0000
  C   C21       1.0  0.20851595111645344  0.7610613300966651  0.9819073244219625  1.0000
  C   C22       1.0  0.7914840485365496  0.2610613299943468  0.5180926757102287  1.0000
  C   C23       1.0  0.7914840485589466  0.2389386701079716  0.018092675754919324  1.0000
  C   C24       1.0  0.20851595113885038  0.7389386693188293  0.4819073244666531  1.0000
  C   C25       1.0  0.2933132369083922  0.6605366188678283  0.9916491103833803  1.0000
  C   C26       1.0  0.7066867627077197  0.16053661876550998  0.5083508893136427  1.0000
  C   C27       1.0  0.7066867627301168  0.3394633804453478  0.00835088935833325  1.0000
  C   C28       1.0  0.29331323693078915  0.8394633805476661  0.4916491104280708  1.0000
  C   C29       1.0  0.4003619158413744  0.6331514932719458  0.953530464580837  1.0000
  C   C30       1.0  0.5996380837747375  0.13315149406108795  0.5464695351161858  1.0000
  C   C31       1.0  0.5996380837971345  0.36684850604123037  0.0464695351608764  1.0000
  C   C32       1.0  0.40036191586377146  0.8668485061435488  0.45353046462552765  1.0000
  C   C33       1.0  0.6471032088821363  0.5490925289774439  0.7900686884320509  1.0000
  C   C34       1.0  0.3528967918315385  0.04909252976658616  0.7099313117001209  1.0000
  C   C35       1.0  0.35289679185393547  0.4509074703357322  0.20993131174481158  1.0000
  C   C36       1.0  0.6471032089045333  0.9509074704380505  0.29006868847674167  1.0000
  C   C37       1.0  0.7835525497141487  0.5402865992350994  0.8252964363380396  1.0000
  C   C38       1.0  0.21644744993885445  0.040286599132780966  0.6747035637941515  1.0000
  C   C39       1.0  0.2164474499612514  0.45971340096953733  0.17470356383884217  1.0000
  C   C40       1.0  0.7835525497365456  0.9597134010718557  0.32529643638273026  1.0000
  C   C41       1.0  0.8825424551865619  0.6324744753082576  0.8214390526717852  1.0000
  C   C42       1.0  0.11745754549022179  0.13247447520593922  0.6785609470252184  1.0000
  C   C43       1.0  0.11745754551261878  0.36752552489637913  0.17856094706990902  1.0000
  C   C44       1.0  0.882542455208959  0.8675255249986975  0.3214390527164758  1.0000
  C   C45       1.0  0.015429332097255905  0.6237074747585059  0.8494075250235134  1.0000
  C   C46       1.0  0.9845706675188561  0.1237074746561875  0.6505924746735094  1.0000
  C   C47       1.0  0.984570667541253  0.37629252544613084  0.15059247471820011  1.0000
  C   C48       1.0  0.015429332119652878  0.8762925255484492  0.34940752506820394  1.0000
  C   C49       1.0  0.05016283537031017  0.5221003003741245  0.8819624671394897  1.0000
  C   C50       1.0  0.9498371653433647  0.022100300271806133  0.6180375329926823  1.0000
  C   C51       1.0  0.9498371653657618  0.4778996989390516  0.118037533037373  1.0000
  C   C52       1.0  0.05016283535581604  0.9778996990413701  0.38196246674901185  1.0000
  C   C53       1.0  0.9507782916961874  0.43075536715026524  0.8872037545666848  1.0000
  C   C54       1.0  0.04922170795681564  0.9307553672525836  0.6127962455655064  1.0000
  C   C55       1.0  0.04922170797921261  0.5692446321629109  0.11279624561019704  1.0000
  C   C56       1.0  0.9507782917185843  0.06924463295205313  0.3872037546113754  1.0000
  C   C57       1.0  0.8178142316142124  0.43934502855298585  0.858829722316324  1.0000
  C   C58       1.0  0.1821857680387906  0.9393450286553042  0.6411702778158671  1.0000
  C   C59       1.0  0.18218576806118764  0.5606549716516509  0.14117027786055777  1.0000
  C   C60       1.0  0.8178142316366095  0.0606549715493325  0.3588297223610146  1.0000
  C   C61       1.0  0.17673642951943844  0.4962788171602379  0.7087430294148295  1.0000
  C   C62       1.0  0.8232635701335645  0.9962788172625563  0.7912569707173617  1.0000
  C   C63       1.0  0.8232635701190705  0.5037211830443987  0.29125697032688386  1.0000
  C   C64       1.0  0.1767364295418354  0.003721182942080407  0.2087430294595202  1.0000
  C   C65       1.0  0.07671796728711741  0.41883876946936366  0.7321871626197546  1.0000
  C   C66       1.0  0.9232820323658857  0.9188387695716821  0.7678128375124366  1.0000
  C   C67       1.0  0.9232820323882825  0.5811612298438125  0.26781283755712715  1.0000
  C   C68       1.0  0.0767179673095144  0.08116122974149408  0.23218716266444528  1.0000
  C   C69       1.0  0.9336295186985364  0.42913716559711634  0.71561630836831  1.0000
  C   C70       1.0  0.06637048095446658  0.9291371656994346  0.784383691763881  1.0000
  C   C71       1.0  0.06637048097686357  0.5708628346075203  0.2843836918085717  1.0000
  C   C72       1.0  0.9336295187209335  0.070862834505202  0.21561630841300072  1.0000
  C   C73       1.0  0.8882522915806933  0.5199395995862415  0.6778689160597842  1.0000
  C   C74       1.0  0.11174770807230969  0.019939599483923105  0.8221310840724069  1.0000
  C   C75       1.0  0.11174770809470667  0.4800604006183952  0.32213108411709757  1.0000
  C   C76       1.0  0.8882522916030904  0.9800604007207135  0.1778689161044749  1.0000
  C   C77       1.0  0.986605213050856  0.599648551768737  0.6557881584682073  1.0000
  C   C78       1.0  0.013394786602147064  0.09964855166641855  0.8442118416639839  1.0000
  C   C79       1.0  0.013394786624544058  0.40035144843589976  0.3442118417086746  1.0000
  C   C80       1.0  0.986605213073253  0.9003514485382181  0.15578815851289782  1.0000
  C   C81       1.0  0.1307910188406769  0.5871378963383012  0.6704494762649655  1.0000
  C   C82       1.0  0.8692089808123261  0.08713789623598281  0.8295505238672256  1.0000
  C   C83       1.0  0.8692089807978319  0.4128621038663355  0.32955052347674785  1.0000
  C   C84       1.0  0.13079101886307387  0.912862103968654  0.17044947630965618  1.0000
  C   C85       1.0  0.6563293405204628  0.7236393254693836  0.5439247037378585  1.0000
  C   C86       1.0  0.34367066019321213  0.22363932536706518  0.9560752963943135  1.0000
  C   C87       1.0  0.3436706602156091  0.2763606738437926  0.45607529643900413  1.0000
  C   C88       1.0  0.6563293405059687  0.776360673946111  0.043924703347380765  1.0000
  C   C89       1.0  0.6396458109054417  0.6094581226125403  0.5201392898702334  1.0000
  C   C90       1.0  0.3603541887106702  0.10945812251022198  0.9798607098267893  1.0000
  C   C91       1.0  0.36035418873306724  0.3905418775920964  0.47986070987148005  1.0000
  C   C92       1.0  0.6396458109278387  0.8905418776944147  0.02013928991492399  1.0000
  C   C93       1.0  0.7152108678826736  0.5763348755705269  0.4714648339124393  1.0000
  C   C94       1.0  0.28478913283890406  0.07633487546820855  0.02853516587394561  1.0000
  C   C95       1.0  0.28478913285339824  0.4236651246341098  0.5285351662644234  1.0000
  C   C96       1.0  0.7152108678602767  0.9236651247364281  0.9714648338677486  1.0000
  C   C97       1.0  0.809489515741543  0.6566584889397593  0.4471075299704397  1.0000
  C   C98       1.0  0.190510483956254  0.15665848972890153  0.0528924702511328  1.0000
  C   C99       1.0  0.19051048393385706  0.3433415103734168  0.5528924702064422  1.0000
  C   C100      1.0  0.8094895157191461  0.8433415104757351  0.9471075299257491  1.0000
  C   C101      1.0  0.8266926923405937  0.770907587218212  0.47085197720137967  1.0000
  C   C102      1.0  0.17330730732031221  0.2709075871158936  0.029148022585024396  1.0000
  C   C103      1.0  0.17330730729791521  0.2290924129864248  0.5291480225403338  1.0000
  C   C104      1.0  0.8266926923181968  0.7290924130887431  0.970851977156689  1.0000
  C   C105      1.0  0.7494668475174875  0.8047268233967723  0.5187083510094609  1.0000
  C   C106      1.0  0.2505331520986245  0.3047268232944539  0.9812916486875618  1.0000
  C   C107      1.0  0.25053315212102145  0.19527317680786443  0.48129164873225244  1.0000
  C   C108      1.0  0.7494668475398845  0.6952731769101829  0.018708351054151588  1.0000
  N   N1        1.0  0.518225967807959  0.5737036057201587  0.8254011821232003  1.0000
  N   N2        1.0  0.4817740318081528  0.07370360561784024  0.6745988175738225  1.0000
  N   N3        1.0  0.48177403183054984  0.4262963944844781  0.1745988176185131  1.0000
  N   N4        1.0  0.518225967830356  0.9262963945867965  0.32540118216789093  1.0000
  O   O1        1.0  0.45400790304663013  0.50904414237822  0.6767712727268578  1.0000
  O   O2        1.0  0.545992096606373  0.009044142275901728  0.8232287274053335  1.0000
  O   O3        1.0  0.54599209662877  0.49095585782641665  0.32322872745002407  1.0000
  O   O4        1.0  0.45400790303213606  0.990955857928735  0.17677127233638001  1.0000
  O   O5        1.0  0.3909980247963953  0.35213814396470783  0.7515150740651856  1.0000
  O   O6        1.0  0.6090019759172796  0.8521381440670263  0.7484849260669866  1.0000
  O   O7        1.0  0.6090019759027855  0.6478618562399289  0.24848492567650876  1.0000
  O   O8        1.0  0.3909980248187922  0.14786185613761052  0.25151507410987606  1.0000
  O   O9        1.0  0.43243439128091105  0.6856707092996568  0.6138178571101965  1.0000
  O   O10       1.0  0.5675656083352009  0.18567070919733847  0.8861821425868264  1.0000
  O   O11       1.0  0.5675656083575977  0.3143292909049799  0.38618214263151696  1.0000
  O   O12       1.0  0.4324343913033081  0.8143292910072982  0.11381785715488715  1.0000
  O   O13       1.0  0.6751268708911513  0.7450757265115736  0.6587540348349445  1.0000
  O   O14       1.0  0.3248731287249606  0.24507572640925535  0.8412459648620783  1.0000
  O   O15       1.0  0.3248731287473576  0.25492427369306303  0.34124596490676884  1.0000
  O   O16       1.0  0.6751268709135483  0.7549242737953813  0.1587540348796352  1.0000
  O   O17       1.0  0.5192730747477695  0.8978266591982637  0.6025202265014946  1.0000
  O   O18       1.0  0.4807269248683425  0.3978266590959453  0.8974797731955282  1.0000
  O   O19       1.0  0.4807269248907395  0.10217334100637307  0.3974797732402188  1.0000
  O   O20       1.0  0.5192730747701664  0.6021733411086915  0.10252022654618524  1.0000
  P   P1        1.0  0.36319365211688165  0.47690361920633434  0.7277263176774382  1.0000
  P   P2        1.0  0.6368063475361214  0.9769036193086527  0.772273682454753  1.0000
  P   P3        1.0  0.6368063475585183  0.5230963801068418  0.27227368249944367  1.0000
  P   P4        1.0  0.36319365213927857  0.023096380004523433  0.22772631772212878  1.0000
  P   P5        1.0  0.5640913812613533  0.7692644844963462  0.6071540807068763  1.0000
  P   P6        1.0  0.43590861835475864  0.2692644843940278  0.8928459189901464  1.0000
  P   P7        1.0  0.4359086183771556  0.23073551570829057  0.39284591903483707  1.0000
  P   P8        1.0  0.5640913812837502  0.7307355158106089  0.10715408075156699  1.0000
