data_image0
_chemical_formula_structural       H22C20N8O4S2Br2I2
_chemical_formula_sum              "H22 C20 N8 O4 S2 Br2 I2"
_cell_length_a       5.653339184505817
_cell_length_b       11.608682922850377
_cell_length_c       12.385841021624499
_cell_angle_alpha    116.98398535342902
_cell_angle_beta     92.10444492071808
_cell_angle_gamma    103.9344205344262

_space_group_name_H-M_alt    "P 1"
_space_group_IT_number       1

loop_
  _space_group_symop_operation_xyz
  'x, y, z'

loop_
  _atom_site_type_symbol
  _atom_site_label
  _atom_site_symmetry_multiplicity
  _atom_site_fract_x
  _atom_site_fract_y
  _atom_site_fract_z
  _atom_site_occupancy
  H   H1        1.0  0.5792756864643938  0.9226974871058675  0.9096008688888888  1.0000
  H   H2        1.0  0.420724313410803  0.0773025131078781  0.0903991316154727  1.0000
  H   H3        1.0  0.3733238604520821  0.7010981795224486  0.5453058773398013  1.0000
  H   H4        1.0  0.626676139423115  0.2989018206912973  0.4546941231645602  1.0000
  H   H5        1.0  0.1444671250105444  0.5950821203771924  0.4215998587366619  1.0000
  H   H6        1.0  0.8555328745610002  0.40491787935903467  0.5784001408485194  1.0000
  H   H7        1.0  0.43910628432945487  0.5789991155492853  0.420123758721731  1.0000
  H   H8        1.0  0.5608937173152699  0.4210008846652818  0.5798762417859644  1.0000
  H   H9        1.0  0.7756896265253065  0.7858220800907965  0.760189186453409  1.0000
  H   H10       1.0  0.22431037304623802  0.21417791964543062  0.23981081313177227  1.0000
  H   H11       1.0  0.07490672547410533  0.6853159109658483  0.8259113489083411  1.0000
  H   H12       1.0  0.9250932740974391  0.31468408877037873  0.17408865067684015  1.0000
  H   H13       1.0  0.12669343177761055  0.7401744899349475  0.048744266311093416  1.0000
  H   H14       1.0  0.8733065698671141  0.2598255102796195  0.951255734196602  1.0000
  H   H15       1.0  0.167719019896601  0.8806597417747191  0.24941041196527422  1.0000
  H   H16       1.0  0.8322809796749436  0.11934025796150813  0.750589587619907  1.0000
  H   H17       1.0  0.03695879273158081  0.7050335981628002  0.3157001343396918  1.0000
  H   H18       1.0  0.9630412068399639  0.29496640157342696  0.6842998652454895  1.0000
  H   H19       1.0  0.7889445312873583  0.7995454345695687  0.4823651217156064  1.0000
  H   H20       1.0  0.21105546828418623  0.20045456516665833  0.517634877869575  1.0000
  H   H21       1.0  0.9244481382190811  0.9636034437388312  0.401851467515314  1.0000
  H   H22       1.0  0.07555186342564352  0.03639655647573574  0.5981485329923815  1.0000
  C   C1        1.0  0.7335213643902037  0.9088649692805962  0.05738446007728183  1.0000
  C   C2        1.0  0.2664786351813408  0.09113503045563073  0.9426155395078994  1.0000
  C   C3        1.0  0.814023025295522  0.8001520721341235  0.8526976036768918  1.0000
  C   C4        1.0  0.18597697604555027  0.1998479276029247  0.14730239591162353  1.0000
  C   C5        1.0  0.9757451791514825  0.7483934948511933  0.8902250190999397  1.0000
  C   C6        1.0  0.024254822493242244  0.25160650536337376  0.10977498140775578  1.0000
  C   C7        1.0  0.004222059592125748  0.7805005043115927  0.014298369167026977  1.0000
  C   C8        1.0  0.9957779399794187  0.21949949542463443  0.9857016304181544  1.0000
  C   C9        1.0  0.5556537032641263  0.929000475046583  0.31965573721846685  1.0000
  C   C10       1.0  0.44434629661107056  0.07099952516716265  0.6803442632858947  1.0000
  C   C11       1.0  0.30518197867955704  0.8590474528349028  0.29581748358670734  1.0000
  C   C12       1.0  0.6948180229651678  0.14095254737966428  0.7041825169209881  1.0000
  C   C13       1.0  0.23072471610197032  0.7631561013218398  0.33556094546183557  1.0000
  C   C14       1.0  0.7692752834695741  0.23684389841438727  0.6644390541233457  1.0000
  C   C15       1.0  0.40690009350573103  0.743428606743904  0.4017539255027849  1.0000
  C   C16       1.0  0.593099906369466  0.25657139346984176  0.5982460750015766  1.0000
  C   C17       1.0  0.6561697608042182  0.814894238640272  0.4278020196086731  1.0000
  C   C18       1.0  0.3438302390709787  0.18510576157347386  0.5721979808956884  1.0000
  C   C19       1.0  0.7312237971553542  0.907067649054956  0.38445140653119336  1.0000
  C   C20       1.0  0.2687762027198427  0.09293235115878996  0.6155485939731681  1.0000
  N   N1        1.0  0.6970018799726323  0.8784829544328688  0.935742300741932  1.0000
  N   N2        1.0  0.3029981199025647  0.12151704578087698  0.06425769976242951  1.0000
  N   N3        1.0  0.8890494604517982  0.8586483011400243  0.09669740202496636  1.0000
  N   N4        1.0  0.11095053911974638  0.14135169859620278  0.9033025975602149  1.0000
  N   N5        1.0  0.6055043817533425  0.9897443838780777  0.1284975814935303  1.0000
  N   N6        1.0  0.3944956198913822  0.010255616336489396  0.8715024190141653  1.0000
  N   N7        1.0  0.3333647773602011  0.6479610998004796  0.44912845074420166  1.0000
  N   N8        1.0  0.6666352225149959  0.35203890041326613  0.5508715497601598  1.0000
  O   O1        1.0  0.48370140558603625  0.13932847941366422  0.3132994290986436  1.0000
  O   O2        1.0  0.5162985939855083  0.8606715203225628  0.6867005704865377  1.0000
  O   O3        1.0  0.9130732320822643  0.127472309776064  0.3324813701065287  1.0000
  O   O4        1.0  0.08692676779293271  0.8725276904376819  0.6675186303978328  1.0000
  S   S1        1.0  0.6553410553929335  0.05731722771035511  0.2764615546884873  1.0000
  S   S2        1.0  0.3446589459481388  0.9426827720266931  0.7235384449000279  1.0000
  Br  Br1       1.0  0.7360388756602949  0.4800423861485595  0.3509689594867316  1.0000
  Br  Br2       1.0  0.2639611239112496  0.5199576135876676  0.6490310400984496  1.0000
  I   I1        1.0  0.5896150414420435  0.4979486156211178  0.10542945595228269  1.0000
  I   I2        1.0  0.4103849584331535  0.502051384592628  0.8945705445520789  1.0000
