data_image0
_chemical_formula_structural       H28C22N8O6S2Br2
_chemical_formula_sum              "H28 C22 N8 O6 S2 Br2"
_cell_length_a       5.618238524417548
_cell_length_b       11.494962523975902
_cell_length_c       12.106638737050485
_cell_angle_alpha    63.60342616811347
_cell_angle_beta     79.94577209940049
_cell_angle_gamma    77.12753818206292

_space_group_name_H-M_alt    "P 1"
_space_group_IT_number       1

loop_
  _space_group_symop_operation_xyz
  'x, y, z'

loop_
  _atom_site_type_symbol
  _atom_site_label
  _atom_site_symmetry_multiplicity
  _atom_site_fract_x
  _atom_site_fract_y
  _atom_site_fract_z
  _atom_site_occupancy
  H   H1        1.0  0.16790831058489009  0.15940334013136007  0.5437897034667356  1.0000
  H   H2        1.0  0.8320916884248186  0.8405966604571893  0.456210295788846  1.0000
  H   H3        1.0  0.354723065040099  0.1568354608621016  0.4187480762204082  1.0000
  H   H4        1.0  0.6452769338060691  0.8431645393046151  0.5812519239607521  1.0000
  H   H5        1.0  0.042623266997066686  0.17008450627701746  0.4203020585533133  1.0000
  H   H6        1.0  0.957376734035986  0.829915492998128  0.5796979416258922  1.0000
  H   H7        1.0  0.8754279132307187  0.8604474189420984  0.8159021638998378  1.0000
  H   H8        1.0  0.1245720873947157  0.13955258122274292  0.18409783628528192  1.0000
  H   H9        1.0  0.8819362605440272  0.6929996075889565  0.037541211150665166  1.0000
  H   H10       1.0  0.11806374008140717  0.3070003925758847  0.9624587890344547  1.0000
  H   H11       1.0  0.4798037762829475  0.0274442518650612  0.7566926225957152  1.0000
  H   H12       1.0  0.5201962245060274  0.9725557487216125  0.24330737666382599  1.0000
  H   H13       1.0  0.7907558067422822  0.6269977202781215  0.2431008959919162  1.0000
  H   H14       1.0  0.20924419429077049  0.373002278997024  0.7568991041872891  1.0000
  H   H15       1.0  0.8304082097207605  0.3840691632751826  0.3107315680922696  1.0000
  H   H16       1.0  0.1695917914758329  0.6159308364217954  0.6892684311613572  1.0000
  H   H17       1.0  0.4917658387374209  0.31972353902388073  0.47834808413121765  1.0000
  H   H18       1.0  0.5082341601087472  0.680276461142836  0.5216519160499425  1.0000
  H   H19       1.0  0.46731095821956825  0.5642515887621679  0.39807005866366607  1.0000
  H   H20       1.0  0.5326890406265998  0.4357484114045489  0.6019299415174942  1.0000
  H   H21       1.0  0.15548916951115396  0.014686726606560391  0.9095674702466159  1.0000
  H   H22       1.0  0.8445108293350142  0.9853132735601563  0.09043252993454441  1.0000
  H   H23       1.0  0.72655897230651  0.28015800383845285  0.15052417664042578  1.0000
  H   H24       1.0  0.27344102653965807  0.7198419963282637  0.8494758235407346  1.0000
  H   H25       1.0  0.5407139809195002  0.4945526189684878  0.12441108552832512  1.0000
  H   H26       1.0  0.45928601970593447  0.5054473811963535  0.8755889146567944  1.0000
  H   H27       1.0  0.34044853831791483  0.40735051811537754  0.1032657497417397  1.0000
  H   H28       1.0  0.6595514627151378  0.5926494811597678  0.8967342504374657  1.0000
  C   C1        1.0  0.7166925860475143  0.8581457824052153  0.8825096308991586  1.0000
  C   C2        1.0  0.28330741498553846  0.1418542168699302  0.11749036928004691  1.0000
  C   C3        1.0  0.7178662959949349  0.7663891075537386  0.006486797306618341  1.0000
  C   C4        1.0  0.28213370463049947  0.23361089261110268  0.9935132028785015  1.0000
  C   C5        1.0  0.32360591825356855  0.8511915600926261  0.054845369535543365  1.0000
  C   C6        1.0  0.6763940807561402  0.1488084404959232  0.9451546297200384  1.0000
  C   C7        1.0  0.5051292257061722  0.9483098087409207  0.8482731774733053  1.0000
  C   C8        1.0  0.49487077491926224  0.05169019142392048  0.15172682271181448  1.0000
  C   C9        1.0  0.13109112628235295  0.607992380658117  0.3153658170247845  1.0000
  C   C10       1.0  0.8689088743430815  0.3920076195067243  0.6846341831603353  1.0000
  C   C11       1.0  0.9494248706580607  0.5600383357414589  0.2899673284779119  1.0000
  C   C12       1.0  0.050575128188107416  0.4399616644252579  0.7100326717032484  1.0000
  C   C13       1.0  0.9686333711072819  0.42448280430175167  0.3296338123770861  1.0000
  C   C14       1.0  0.03136662968169325  0.5755171962849222  0.670366186882455  1.0000
  C   C15       1.0  0.16393210261573865  0.3405642091118642  0.39687074488429985  1.0000
  C   C16       1.0  0.8360678985808547  0.6594357905851138  0.6031292543693269  1.0000
  C   C17       1.0  0.3446848215511398  0.38818097814638625  0.42284669124905067  1.0000
  C   C18       1.0  0.6553151777026468  0.6118190211306345  0.5771533089261952  1.0000
  C   C19       1.0  0.32934973174900584  0.5234735610524923  0.38006486048360294  1.0000
  C   C20       1.0  0.6706502690399693  0.4765264395341813  0.6199351387759382  1.0000
  C   C21       1.0  0.5126916114001018  0.44818583334465256  0.06605404574252362  1.0000
  C   C22       1.0  0.4873083874460661  0.5518141668220643  0.9339459544386367  1.0000
  N   N1        1.0  0.3152076930663123  0.9440273139576043  0.9340254529599892  1.0000
  N   N2        1.0  0.6847923075591222  0.05597268620723692  0.06597454722513063  1.0000
  N   N3        1.0  0.11700744712991239  0.8597470108353645  0.12772975892710897  1.0000
  N   N4        1.0  0.8829925534955221  0.1402529893294766  0.8722702412580108  1.0000
  N   N5        1.0  0.1810318339473091  0.19814001941954296  0.44692672258475036  1.0000
  N   N6        1.0  0.8189681670857436  0.8018599798556024  0.5530732775944549  1.0000
  N   N7        1.0  0.5285812047823782  0.7620081753553548  0.09136760172341928  1.0000
  N   N8        1.0  0.47141879600659686  0.23799182523131893  0.9086323975361218  1.0000
  O   O1        1.0  0.8475225109117882  0.8199809218407041  0.3147035170994225  1.0000
  O   O2        1.0  0.1524774883419982  0.18001907743631676  0.6852964830758234  1.0000
  O   O3        1.0  0.28944915123094583  0.7944943119468999  0.3342116771304315  1.0000
  O   O4        1.0  0.710550849558029  0.20550568863977398  0.6657883221291095  1.0000
  O   O5        1.0  0.715716986932338  0.3482956861642938  0.06469508971206593  1.0000
  O   O6        1.0  0.28428301369309644  0.6517043140005474  0.9353049104730538  1.0000
  S   S1        1.0  0.10123472815454251  0.7788089678548794  0.27591577685335383  1.0000
  S   S2        1.0  0.8987652724708921  0.22119103230996173  0.7240842233317659  1.0000
  Br  Br1       1.0  0.7456736207279488  0.1223882128279453  0.35243650677166116  1.0000
  Br  Br2       1.0  0.25432637811821907  0.8776117873387715  0.6475634934094991  1.0000
