data_image0
_chemical_formula_structural       H22C20N8O4S2Cl2I2
_chemical_formula_sum              "H22 C20 N8 O4 S2 Cl2 I2"
_cell_length_a       5.609653617048738
_cell_length_b       11.410090221610195
_cell_length_c       12.25195475832145
_cell_angle_alpha    116.81429134301871
_cell_angle_beta     91.54119815535498
_cell_angle_gamma    103.80298325166386

_space_group_name_H-M_alt    "P 1"
_space_group_IT_number       1

loop_
  _space_group_symop_operation_xyz
  'x, y, z'

loop_
  _atom_site_type_symbol
  _atom_site_label
  _atom_site_symmetry_multiplicity
  _atom_site_fract_x
  _atom_site_fract_y
  _atom_site_fract_z
  _atom_site_occupancy
  H   H1        1.0  0.578975103829881  0.9212146122103049  0.9078772230841102  1.0000
  H   H2        1.0  0.42102489795191256  0.07878538806260779  0.0921227770551729  1.0000
  H   H3        1.0  0.35958298405282396  0.685925772708906  0.5422908933786841  1.0000
  H   H4        1.0  0.6404170159461566  0.3140742275639964  0.4577091067575489  1.0000
  H   H5        1.0  0.13524000543611828  0.5820670014106135  0.41649072512887314  1.0000
  H   H6        1.0  0.8647599945628622  0.4179329988622888  0.5835092750073597  1.0000
  H   H7        1.0  0.43571416929346385  0.5672821573971198  0.41505170527616775  1.0000
  H   H8        1.0  0.5642858307055167  0.4327178428757825  0.584948294860065  1.0000
  H   H9        1.0  0.7784993513335794  0.781808059852319  0.7570012917709871  1.0000
  H   H10       1.0  0.2215006486654012  0.21819194042058315  0.24299870836524592  1.0000
  H   H11       1.0  0.08454242328424426  0.6820509276008432  0.823319101766048  1.0000
  H   H12       1.0  0.915457576433568  0.31794907219260404  0.1766808974444426  1.0000
  H   H13       1.0  0.13697616997139364  0.7390626853439006  0.04836482517233974  1.0000
  H   H14       1.0  0.8630238297464188  0.26093731444954676  0.9516351740381509  1.0000
  H   H15       1.0  0.16395825223157698  0.8795690564568271  0.24978280819939197  1.0000
  H   H16       1.0  0.8360417477674036  0.12043094381607525  0.750217191936841  1.0000
  H   H17       1.0  0.03133381403071846  0.6987853623629957  0.31525850966570956  1.0000
  H   H18       1.0  0.968666185687094  0.3012146374304516  0.6847414895447811  1.0000
  H   H19       1.0  0.783557567090756  0.7923657773134429  0.4825412607097258  1.0000
  H   H20       1.0  0.2164424342490906  0.2076342220555035  0.5174587394266917  1.0000
  H   H21       1.0  0.9213152060905496  0.9617814509432098  0.4038363355431209  1.0000
  H   H22       1.0  0.07868479346648401  0.03821854842572637  0.5961636645902465  1.0000
  C   C1        1.0  0.7346595690299899  0.9077722380418134  0.05701077665412413  1.0000
  C   C2        1.0  0.26534043096899074  0.09222776223108903  0.9429892234821089  1.0000
  C   C3        1.0  0.8176308440406419  0.7969983654368722  0.8504984878235766  1.0000
  C   C4        1.0  0.18236915595833872  0.20300163483603018  0.1495015123126564  1.0000
  C   C5        1.0  0.9824655517975269  0.7452881978630868  0.8882537180535744  1.0000
  C   C6        1.0  0.017534448201453567  0.2547118024098155  0.11174628208265837  1.0000
  C   C7        1.0  0.011443789615835365  0.7789080361103184  0.013583131743275663  1.0000
  C   C8        1.0  0.9885562103831452  0.22109196416258392  0.9864168683929573  1.0000
  C   C9        1.0  0.5522513723634153  0.9282593910102336  0.32174417913240444  1.0000
  C   C10       1.0  0.4477486276355653  0.07174060926266874  0.6782558210038285  1.0000
  C   C11       1.0  0.30085585033915235  0.8568341141802605  0.2966568927285719  1.0000
  C   C12       1.0  0.6991441496598282  0.14316588609264191  0.703343107407661  1.0000
  C   C13       1.0  0.2255157731531279  0.757807284327912  0.3353880901336837  1.0000
  C   C14       1.0  0.7744842268458526  0.24219271594499026  0.6646119100025493  1.0000
  C   C15       1.0  0.40082222771449555  0.7360469601816347  0.40124957747162887  1.0000
  C   C16       1.0  0.599177772284485  0.2639530400912676  0.598750422664604  1.0000
  C   C17       1.0  0.6509282685067098  0.80885720352162  0.4282434435532235  1.0000
  C   C18       1.0  0.34907173149227066  0.19114279675128207  0.5717565565830094  1.0000
  C   C19       1.0  0.7272911498759178  0.9044747242109099  0.38630307628301574  1.0000
  C   C20       1.0  0.2727088496811156  0.09552527515802614  0.6136969238503517  1.0000
  N   N1        1.0  0.6976271504577147  0.8761171139571936  0.9342078279828262  1.0000
  N   N2        1.0  0.3023728495412658  0.12388288631570867  0.06579217215340676  1.0000
  N   N3        1.0  0.8933648359172274  0.8579139629621377  0.09661982504850083  1.0000
  N   N4        1.0  0.10663516408175316  0.14208603731076455  0.9033801750877322  1.0000
  N   N5        1.0  0.604641658749197  0.98979156195679  0.12906029990347584  1.0000
  N   N6        1.0  0.39535834124978353  0.010208438316112156  0.870939700232757  1.0000
  N   N7        1.0  0.324747663315761  0.6353885808299962  0.44561415808776245  1.0000
  N   N8        1.0  0.6752523364020513  0.3646114189634511  0.5543858411227282  1.0000
  O   O1        1.0  0.4849191547560872  0.14425724159831593  0.31615355252352906  1.0000
  O   O2        1.0  0.5150808452428933  0.8557427586745863  0.6838464476127039  1.0000
  O   O3        1.0  0.9139006404963442  0.12815377485576948  0.33333344449176056  1.0000
  O   O4        1.0  0.08609935906068934  0.8718462245131665  0.6666665556416067  1.0000
  S   S1        1.0  0.6549193030979866  0.05887537461982213  0.278295463314783  1.0000
  S   S2        1.0  0.3450806964590468  0.941124624749114  0.7217045368185844  1.0000
  Cl  Cl1       1.0  0.7392285859565734  0.4866410672906015  0.3506772312090192  1.0000
  Cl  Cl2       1.0  0.2607714140424073  0.5133589329823007  0.6493227689272137  1.0000
  I   I1        1.0  0.5910068865958005  0.4990555260924285  0.10565161123791293  1.0000
  I   I2        1.0  0.40899311518599313  0.5009444741804842  0.8943483889013703  1.0000
