data_image0
_chemical_formula_structural       H34C24N8O8S2I6
_chemical_formula_sum              "H34 C24 N8 O8 S2 I6"
_cell_length_a       8.00933274768787
_cell_length_b       10.819689053125295
_cell_length_c       11.681506895894454
_cell_angle_alpha    83.89349185463612
_cell_angle_beta     74.74613678022622
_cell_angle_gamma    85.79812722095251

_space_group_name_H-M_alt    "P 1"
_space_group_IT_number       1

loop_
  _space_group_symop_operation_xyz
  'x, y, z'

loop_
  _atom_site_type_symbol
  _atom_site_label
  _atom_site_symmetry_multiplicity
  _atom_site_fract_x
  _atom_site_fract_y
  _atom_site_fract_z
  _atom_site_occupancy
  H   H1        1.0  0.9518214270730502  0.9014757140970756  0.5521098061541542  1.0000
  H   H2        1.0  0.048178573182392215  0.09852428573209389  0.44789019334258734  1.0000
  H   H3        1.0  0.9137648141631475  0.8609645391897429  0.0035331392234304792  1.0000
  H   H4        1.0  0.08623518609229514  0.13903546063942673  0.9964668602733109  1.0000
  H   H5        1.0  0.909949895225718  0.8234424514899759  0.14796000451601313  1.0000
  H   H6        1.0  0.09005010502972442  0.17655754833919374  0.8520399949807284  1.0000
  H   H7        1.0  0.8504752361508158  0.7182362744969202  0.07088985226724306  1.0000
  H   H8        1.0  0.1495247637651953  0.2817637252516313  0.9291101481204553  1.0000
  H   H9        1.0  0.8498095482629366  0.7053012130725101  0.6327094791710766  1.0000
  H   H10       1.0  0.1501904515626811  0.294698787603095  0.36729052121314404  1.0000
  H   H11       1.0  0.8208545175286699  0.5478346525921747  0.49113245702327735  1.0000
  H   H12       1.0  0.17914548238734107  0.45216534715637674  0.508867543364421  1.0000
  H   H13       1.0  0.8914780037753975  0.6235139665112538  0.27187358297163094  1.0000
  H   H14       1.0  0.10852199614061334  0.3764860332372976  0.7281264174160674  1.0000
  H   H15       1.0  0.4286522732076238  0.08470325439303363  0.2822409139421098  1.0000
  H   H16       1.0  0.5713477270478188  0.915296745436136  0.7177590855546316  1.0000
  H   H17       1.0  0.7288831772781367  0.9897139917945192  0.2288317082564607  1.0000
  H   H18       1.0  0.2711168229773058  0.010286008034650396  0.7711682912402805  1.0000
  H   H19       1.0  0.5783523295555946  0.7511063730320896  0.0038664951191929777  1.0000
  H   H20       1.0  0.42164767036041656  0.24889362671646173  0.9961335052685053  1.0000
  H   H21       1.0  0.2762895768001766  0.8429212523917806  0.058921908153343104  1.0000
  H   H22       1.0  0.7237104231158344  0.1570787473567708  0.9410780922343553  1.0000
  H   H23       1.0  0.7985210427855018  0.3777641413269507  0.9581188924983841  1.0000
  H   H24       1.0  0.20147895713050915  0.6222358584216008  0.041881107889314095  1.0000
  H   H25       1.0  0.6433891655696046  0.5490858038830427  0.12986788062243335  1.0000
  H   H26       1.0  0.356610834685838  0.45091419594612686  0.8701321188743081  1.0000
  H   H27       1.0  0.8394482037800691  0.2430115440525837  0.1744222168375046  1.0000
  H   H28       1.0  0.16055179647537327  0.7569884557765858  0.8255777826592368  1.0000
  H   H29       1.0  0.6424806236667493  0.3177114599036519  0.15455223124288567  1.0000
  H   H30       1.0  0.3575193762492616  0.6822885398448996  0.8454477691448127  1.0000
  H   H31       1.0  0.7889315488853521  0.4392919980150341  0.26342097332393893  1.0000
  H   H32       1.0  0.21106845094026583  0.5607080026605711  0.7365790270602816  1.0000
  H   H33       1.0  0.978059351730674  0.44638512646391504  0.14036779876719555  1.0000
  H   H34       1.0  0.02194064684788949  0.5536148742120715  0.859632201613078  1.0000
  C   C1        1.0  0.9809476554538251  0.8751459986099378  0.373085700602765  1.0000
  C   C2        1.0  0.019052344462185997  0.1248540011386137  0.6269142997849334  1.0000
  C   C3        1.0  0.8816496560815003  0.7240964325231466  0.5362213568728385  1.0000
  C   C4        1.0  0.11835034374411754  0.2759035681524585  0.4637786435113821  1.0000
  C   C5        1.0  0.8669977270355529  0.6403531188255082  0.4585881484239022  1.0000
  C   C6        1.0  0.13300227288045813  0.35964688092304326  0.5414118519637962  1.0000
  C   C7        1.0  0.9064213552477156  0.6830111028469142  0.3379148314530108  1.0000
  C   C8        1.0  0.0935786450077268  0.3169888969822554  0.6620851680437306  1.0000
  C   C9        1.0  0.33654715710447247  0.9694940792546004  0.17325790707780533  1.0000
  C   C10       1.0  0.6634528431509698  0.03050592057456926  0.8267420924189361  1.0000
  C   C11       1.0  0.4612765075132348  0.010629282034332718  0.22268126366133856  1.0000
  C   C12       1.0  0.5387234927422078  0.9893707177948371  0.7773187358354028  1.0000
  C   C13       1.0  0.6284076460009138  0.9575767417397739  0.19345995699347837  1.0000
  C   C14       1.0  0.3715923538247039  0.04242325893583117  0.8065400433907421  1.0000
  C   C15       1.0  0.6673946115566504  0.8645213475261835  0.11546229654769202  1.0000
  C   C16       1.0  0.3326053886987922  0.13547865230298606  0.8845377029490493  1.0000
  C   C17       1.0  0.5434370751551796  0.8228361751487969  0.0661706213654582  1.0000
  C   C18       1.0  0.45656292476083143  0.17716382459975433  0.9338293790222401  1.0000
  C   C19       1.0  0.37492888856412987  0.8754033424103891  0.09599359684793896  1.0000
  C   C20       1.0  0.625071111261488  0.12459665826521611  0.9040064035362815  1.0000
  C   C21       1.0  0.784806358398197  0.322802256810513  0.12761857926265782  1.0000
  C   C22       1.0  0.21519364151781403  0.6771977429380384  0.8723814211250405  1.0000
  C   C23       1.0  0.8364547455926312  0.4411180490971384  0.16534061557241148  1.0000
  C   C24       1.0  0.16354525423298677  0.5588819515784667  0.834659384811809  1.0000
  N   N1        1.0  0.9382864061090093  0.8378564957140925  0.4930404916286117  1.0000
  N   N2        1.0  0.0617135938070018  0.1621435040344589  0.5069595087590866  1.0000
  N   N3        1.0  0.9602102414706394  0.7968887100119789  0.2953023357518889  1.0000
  N   N4        1.0  0.03978975878480295  0.20311128981719065  0.7046976637448524  1.0000
  N   N5        1.0  0.03823970008048286  0.990394515644056  0.3444670153598014  1.0000
  N   N6        1.0  0.9617603001749597  0.00960548418511357  0.6555329841369401  1.0000
  N   N7        1.0  0.8449473488902525  0.8129726370569  0.08211129283635567  1.0000
  N   N8        1.0  0.15505265102575852  0.1870273626916513  0.9178887075513426  1.0000
  O   O1        1.0  0.15207837640217242  0.1754962411942853  0.2183117652572844  1.0000
  O   O2        1.0  0.8479216235138388  0.8245037585542663  0.7816882351304139  1.0000
  O   O3        1.0  0.03639657726098607  0.020457320933742838  0.12259950245532682  1.0000
  O   O4        1.0  0.9636034225646319  0.9795426797418624  0.8774004979288937  1.0000
  O   O5        1.0  0.8508932174419137  0.31041843396061547  0.00284992642353609  1.0000
  O   O6        1.0  0.1491067815664743  0.6895815658689354  0.9971500730692584  1.0000
  O   O7        1.0  0.7708927663495436  0.552053893207882  0.1081428500697874  1.0000
  O   O8        1.0  0.22910723347607417  0.4479461074677231  0.8918571503144331  1.0000
  S   S1        1.0  0.1280137175876013  0.04536154731517239  0.21042429586289352  1.0000
  S   S2        1.0  0.8719862823284097  0.9546384524333793  0.7895757045248047  1.0000
  I   I1        1.0  0.3814146949716581  0.6587578661676899  0.37919190515439083  1.0000
  I   I2        1.0  0.6185853048539598  0.34124213450791513  0.6208080952298297  1.0000
  I   I3        1.0  0.32549882574940353  0.4964391741549243  0.19879391523084958  1.0000
  I   I4        1.0  0.6745011740762142  0.5035608265206808  0.801206085153371  1.0000
  I   I5        1.0  0.41177033246127115  0.8319101114621025  0.5394773527555555  1.0000
  I   I6        1.0  0.5882296677941714  0.16808988836706704  0.46052264674118587  1.0000
