data_image0
_chemical_formula_structural       H62C64N12Cl2
_chemical_formula_sum              "H62 C64 N12 Cl2"
_cell_length_a       7.7287206391525345
_cell_length_b       6.309070025193929
_cell_length_c       27.346823049544376
_cell_angle_alpha    90.0
_cell_angle_beta     97.04458381231161
_cell_angle_gamma    90.0

_space_group_name_H-M_alt    "P 1"
_space_group_IT_number       1

loop_
  _space_group_symop_operation_xyz
  'x, y, z'

loop_
  _atom_site_type_symbol
  _atom_site_label
  _atom_site_symmetry_multiplicity
  _atom_site_fract_x
  _atom_site_fract_y
  _atom_site_fract_z
  _atom_site_occupancy
  H   H1        1.0  0.6366810871703064  0.7996000519656515  0.7036787778666904  1.0000
  H   H2        1.0  0.3633189134278859  0.29960005237727555  0.2963212221937213  1.0000
  H   H3        1.0  0.25463828668522714  0.9235194896764366  0.7141519728167954  1.0000
  H   H4        1.0  0.7453617139129652  0.42351949008806056  0.28584802724361624  1.0000
  H   H5        1.0  0.08092745235900008  0.05356910585084391  0.732962538711369  1.0000
  H   H6        1.0  0.9190725469447215  0.55356910543922  0.2670374613476493  1.0000
  H   H7        1.0  0.2915848479609244  0.148847877143531  0.745455453380623  1.0000
  H   H8        1.0  0.7084151513427974  0.648847876731907  0.25454454667839543  1.0000
  H   H9        1.0  0.7156134667571282  0.4441667422947748  0.6664680430086211  1.0000
  H   H10       1.0  0.2843865338410641  0.9441667418831509  0.3335319570517906  1.0000
  H   H11       1.0  0.41422368678636284  0.03733794030805025  0.6577600084887467  1.0000
  H   H12       1.0  0.5857763138118295  0.5373379398964263  0.34223999157166496  1.0000
  H   H13       1.0  0.06051158080359565  0.10632954101335715  0.648573920901474  1.0000
  H   H14       1.0  0.93948841834513  0.6063295406017333  0.3514260787890923  1.0000
  H   H15       1.0  0.040753791196672925  0.4884143776650003  0.6488718579988841  1.0000
  H   H16       1.0  0.9592462094015195  0.9884143772533763  0.35112814206152754  1.0000
  H   H17       1.0  0.06351283381182524  0.4442950242756005  0.7134440354161018  1.0000
  H   H18       1.0  0.9364871654918965  0.9442950254489962  0.2865559646429165  1.0000
  H   H19       1.0  0.19469620150268072  0.8531196814279385  0.5935052818795377  1.0000
  H   H20       1.0  0.8053037990955115  0.35311968183956244  0.406494718180874  1.0000
  H   H21       1.0  0.11056914925669149  0.821376010934466  0.5038869623791858  1.0000
  H   H22       1.0  0.8894308500470304  0.3213760097610703  0.4961130376798326  1.0000
  H   H23       1.0  0.09724174527787552  0.9739523900451751  0.4207231860026812  1.0000
  H   H24       1.0  0.90275825387085  0.47395238887177943  0.5792768136878851  1.0000
  H   H25       1.0  0.15668264208561825  0.276223012748449  0.3653016561249408  1.0000
  H   H26       1.0  0.843317358512574  0.776223012336825  0.6346983439354709  1.0000
  H   H27       1.0  0.3065076063259695  0.5987636569121584  0.4006110497200937  1.0000
  H   H28       1.0  0.6934923942722229  0.09876365732378235  0.599388950340318  1.0000
  H   H29       1.0  0.3909843456303421  0.630023053180143  0.4906982824280831  1.0000
  H   H30       1.0  0.6090156549678503  0.13002305359176686  0.5093017176323286  1.0000
  H   H31       1.0  0.3963546070537591  0.48085909617190337  0.5748802981834772  1.0000
  H   H32       1.0  0.6036453935444334  0.9808590957602795  0.4251197018769345  1.0000
  H   H33       1.0  0.899546283024442  0.7702574310626114  0.7778942685383742  1.0000
  H   H34       1.0  0.1004537175737504  0.27025743147423525  0.22210573152203747  1.0000
  H   H35       1.0  0.4810473707533904  0.0165956566628505  0.8003409772068552  1.0000
  H   H36       1.0  0.518952629844802  0.5165956578362463  0.19965902285355652  1.0000
  H   H37       1.0  0.5851914308036896  0.20784854261618252  0.7767881950945014  1.0000
  H   H38       1.0  0.4148085685000323  0.7078485437895783  0.22321180496451704  1.0000
  H   H39       1.0  0.8631089382456918  0.40075902944543423  0.8176022767426545  1.0000
  H   H40       1.0  0.1368910621975042  0.9007590306188299  0.18239772294930515  1.0000
  H   H41       1.0  0.2341423909971531  0.08245940176959897  0.83919516890708  1.0000
  H   H42       1.0  0.7658576096010392  0.582459401357975  0.16080483115333163  1.0000
  H   H43       1.0  0.5595195689086719  0.26143661322720857  0.8663592838713595  1.0000
  H   H44       1.0  0.4404804303950498  0.7614366128155846  0.1336407161876588  1.0000
  H   H45       1.0  0.5107209577360372  0.6324208788405952  0.8551817709173171  1.0000
  H   H46       1.0  0.489279042862155  0.13242087925221907  0.1448182291430945  1.0000
  H   H47       1.0  0.5230823516744525  0.5718003613201474  0.7921793062400094  1.0000
  H   H48       1.0  0.476917647474273  0.07180036173177137  0.20782069345055704  1.0000
  H   H49       1.0  0.3960793676484935  0.9247160178445906  0.913639339520703  1.0000
  H   H50       1.0  0.6039206329496988  0.4247160182562145  0.08636066053970867  1.0000
  H   H51       1.0  0.3977577004952915  0.890802583828866  0.003470193768925888  1.0000
  H   H52       1.0  0.6022423001029009  0.39080258424048986  0.9965298062914857  1.0000
  H   H53       1.0  0.3113049410901347  0.029265210128068698  0.08137492613780195  1.0000
  H   H54       1.0  0.6886950580585909  0.5292652097164448  0.9186250735527645  1.0000
  H   H55       1.0  0.18891040592247993  0.3211213620881828  0.1284584144302579  1.0000
  H   H56       1.0  0.8110895933812418  0.8211213632615785  0.8715415856287604  1.0000
  H   H57       1.0  0.0865158105910092  0.6554177134644968  0.08538911698574288  1.0000
  H   H58       1.0  0.913484190007183  0.15541771387612077  0.9146108830746686  1.0000
  H   H59       1.0  0.10147224210725975  0.696857480174324  0.9961388585142753  1.0000
  H   H60       1.0  0.8985277584909326  0.19685747900092831  0.0038611415461362814  1.0000
  H   H61       1.0  0.1629082548741234  0.5446331117389017  0.91669619497828  1.0000
  H   H62       1.0  0.8370917444295983  0.0446331121505256  0.08330380508073837  1.0000
  C   C1        1.0  0.5844546023913408  0.4875504214910739  0.6725373675830443  1.0000
  C   C2        1.0  0.4155453969123809  0.9875504226644696  0.32746263247597424  1.0000
  C   C3        1.0  0.42702933749972527  0.3803074605953906  0.6655645879539941  1.0000
  C   C4        1.0  0.5729706618039965  0.8803074601837667  0.33443541210502425  1.0000
  C   C5        1.0  0.3408731446465173  0.1811711496996526  0.6457537053857276  1.0000
  C   C6        1.0  0.6591268557966787  0.6811711492880286  0.354246294306232  1.0000
  C   C7        1.0  0.1683913293999657  0.18716309302078224  0.6708842479419497  1.0000
  C   C8        1.0  0.8316086711982266  0.6871630926091583  0.329115752118462  1.0000
  C   C9        1.0  0.12773907809011506  0.42368395331257014  0.6800922237665021  1.0000
  C   C10       1.0  0.8722609212136067  0.9236839529009462  0.3199077762925164  1.0000
  C   C11       1.0  0.30613299883103634  0.5179351405121799  0.68313811950993  1.0000
  C   C12       1.0  0.6938670004726853  0.01793514092380388  0.3168618805490884  1.0000
  C   C13       1.0  0.2996139896385239  0.17178503577739035  0.5900741315224601  1.0000
  C   C14       1.0  0.7003860096651977  0.6717850353657664  0.4099258685365582  1.0000
  C   C15       1.0  0.2199516357993464  0.9839900009366557  0.5692380049703325  1.0000
  C   C16       1.0  0.7800483646438496  0.48399000134827963  0.43076199472162713  1.0000
  C   C17       1.0  0.17369119798172789  0.9652732551201643  0.5192744911069186  1.0000
  C   C18       1.0  0.8263088013219939  0.4652732539467685  0.4807255089520998  1.0000
  C   C19       1.0  0.20702650994259283  0.13277460333375382  0.4870372224163907  1.0000
  C   C20       1.0  0.7929734905006032  0.6327746029221298  0.5129627772755689  1.0000
  C   C21       1.0  0.16072127370827674  0.11920976102605263  0.4353668776248855  1.0000
  C   C22       1.0  0.8392787255954449  0.6192097606144287  0.5646331224341328  1.0000
  C   C23       1.0  0.19408990272139798  0.28517330808112196  0.4050040466150588  1.0000
  C   C24       1.0  0.8059100965823238  0.785173307669498  0.5949959534439597  1.0000
  C   C25       1.0  0.2779810581599593  0.47034402505443534  0.42510446888907166  1.0000
  C   C26       1.0  0.7220189424382331  0.9703440246428114  0.57489553117134  1.0000
  C   C27       1.0  0.3251533018107012  0.4879707417584684  0.47525147523334227  1.0000
  C   C28       1.0  0.674846698787491  0.9879707413468445  0.5247485248270694  1.0000
  C   C29       1.0  0.2897107584683099  0.3218260713372869  0.5075459915005597  1.0000
  C   C30       1.0  0.7102892421298823  0.8218260709256631  0.49245400855985194  1.0000
  C   C31       1.0  0.33355241759775306  0.3366659177213223  0.5594551173742718  1.0000
  C   C32       1.0  0.6664475830004393  0.8366659188947181  0.4405448826861399  1.0000
  C   C33       1.0  0.9874542054017423  0.4768264194226517  0.8150845052923643  1.0000
  C   C34       1.0  0.01254579390197938  0.9768264190110278  0.184915494766654  1.0000
  C   C35       1.0  0.15885426984604828  0.41285594700939077  0.8279474700961449  1.0000
  C   C36       1.0  0.8411457307521439  0.9128559465977667  0.17205252996426662  1.0000
  C   C37       1.0  0.2712741384026798  0.2421525841208332  0.8531948219765624  1.0000
  C   C38       1.0  0.728725860901042  0.7421525837092093  0.146805178082456  1.0000
  C   C39       1.0  0.4547482493007388  0.29787439075733413  0.8363829126232013  1.0000
  C   C40       1.0  0.545251750002983  0.7978743903457102  0.16361708743581704  1.0000
  C   C41       1.0  0.4511478598491729  0.5384519979068673  0.823645078478094  1.0000
  C   C42       1.0  0.5488521394545489  0.038451996733471515  0.17635492158092445  1.0000
  C   C43       1.0  0.2600042787725935  0.5805370673290977  0.8130211316694783  1.0000
  C   C44       1.0  0.7399957205311283  0.08053706774072167  0.18697886838954014  1.0000
  C   C45       1.0  0.2766494916821736  0.23743995454448194  0.9088744954162215  1.0000
  C   C46       1.0  0.7233505089160187  0.737439954132858  0.0911255046441903  1.0000
  C   C47       1.0  0.34552136475672984  0.05369773970603322  0.9344084345750747  1.0000
  C   C48       1.0  0.6544786358414624  0.5536977408794289  0.0655915654853368  1.0000
  C   C49       1.0  0.3469693452089684  0.03418412684258814  0.9845723207449643  1.0000
  C   C50       1.0  0.6530306540947534  0.5341841280159838  0.015427679314054187  1.0000
  C   C51       1.0  0.27908567305508725  0.19794396083939692  0.012275899692576413  1.0000
  C   C52       1.0  0.720914327543105  0.697943960427773  0.9877241003678353  1.0000
  C   C53       1.0  0.2676061867396191  0.17764631958821053  0.06340692648128499  1.0000
  C   C54       1.0  0.7323938138585733  0.6776463191765866  0.9365930735791267  1.0000
  C   C55       1.0  0.19997271670704092  0.3394405485195376  0.08931055595722959  1.0000
  C   C56       1.0  0.8000272825966809  0.8394405496929334  0.9106894441017888  1.0000
  C   C57       1.0  0.14178559376549182  0.5290639439205462  0.06494015316908562  1.0000
  C   C58       1.0  0.8582144068327004  0.029063944332170206  0.9350598468913262  1.0000
  C   C59       1.0  0.14921163893516212  0.5523245638556514  0.015046844797140078  1.0000
  C   C60       1.0  0.850788361508034  0.05232456426727531  0.9849531548948196  1.0000
  C   C61       1.0  0.21593123276672319  0.3877758719162099  0.9873237894462323  1.0000
  C   C62       1.0  0.7840687678314691  0.8877758730896057  0.012676210614179251  1.0000
  C   C63       1.0  0.21649347006162045  0.40226767017409815  0.9355090460975305  1.0000
  C   C64       1.0  0.7835065303815757  0.9022676697624742  0.06449095359442915  1.0000
  N   N1        1.0  0.37925563023238984  0.7000389791781148  0.6996296555493235  1.0000
  N   N2        1.0  0.6207443703658025  0.20003897800471898  0.300370344511088  1.0000
  N   N3        1.0  0.5496771153052548  0.6780204281959151  0.6925800391285801  1.0000
  N   N4        1.0  0.450322883998467  0.178020428607539  0.3074199609304382  1.0000
  N   N5        1.0  0.1985305107505021  0.07388454370272608  0.7186944184022618  1.0000
  N   N6        1.0  0.8014694898476903  0.5738845432911022  0.2813055816581499  1.0000
  N   N7        1.0  0.16346503190586126  0.7405524207755779  0.792690777491775  1.0000
  N   N8        1.0  0.8365349686923311  0.24055241960218218  0.20730922256863676  1.0000
  N   N9        1.0  0.9969779161081657  0.6731230788438526  0.7944558123509788  1.0000
  N   N10       1.0  0.003022084490026557  0.17312307925547657  0.2055441877094327  1.0000
  N   N11       1.0  0.472666736484551  0.17442982176539926  0.7917364123921202  1.0000
  N   N12       1.0  0.5273332628191707  0.6744298229387949  0.20826358766689812  1.0000
  Cl  Cl1       1.0  0.2002058671444761  0.539265236621846  0.2683770147093219  1.0000
  Cl  Cl2       1.0  0.7997941334537163  0.03926523703346998  0.7316229853510897  1.0000
