data_image0
_chemical_formula_structural       H68C60N20O8S8
_chemical_formula_sum              "H68 C60 N20 O8 S8"
_cell_length_a       8.268305449627203
_cell_length_b       19.164533222717456
_cell_length_c       10.780482496685195
_cell_angle_alpha    90.0
_cell_angle_beta     104.23858154626349
_cell_angle_gamma    90.0

_space_group_name_H-M_alt    "P 1"
_space_group_IT_number       1

loop_
  _space_group_symop_operation_xyz
  'x, y, z'

loop_
  _atom_site_type_symbol
  _atom_site_label
  _atom_site_symmetry_multiplicity
  _atom_site_fract_x
  _atom_site_fract_y
  _atom_site_fract_z
  _atom_site_occupancy
  H   H1        1.0  0.9738833011470791  0.18588131934135757  0.5289929688472408  1.0000
  H   H2        1.0  0.5261166984126143  0.6858813192704595  0.9710070305004554  1.0000
  H   H3        1.0  0.02611669813845039  0.8141186805168463  0.47100703125500887  1.0000
  H   H4        1.0  0.4738833008804411  0.31411868058774434  0.028992968675628523  1.0000
  H   H5        1.0  0.10316810984263583  0.2351068657732279  0.6510741575360113  1.0000
  H   H6        1.0  0.3968318899218533  0.7351068657023299  0.8489258426937424  1.0000
  H   H7        1.0  0.8968318894428937  0.764893134084976  0.3489258425662384  1.0000
  H   H8        1.0  0.6031681106114225  0.264893134155874  0.15107415764948198  1.0000
  H   H9        1.0  0.7698228328215996  0.35460751018679754  0.8690835669315886  1.0000
  H   H10       1.0  0.7301771679783143  0.8546075101158995  0.630916433583248  1.0000
  H   H11       1.0  0.23017716771167637  0.6453924901932035  0.13091643341163586  1.0000
  H   H12       1.0  0.26982283255496164  0.1453924897423044  0.3690835667599764  1.0000
  H   H13       1.0  0.4270903119765112  0.25573120268801736  0.5506698408202164  1.0000
  H   H14       1.0  0.07290968778797792  0.7557312026171192  0.9493301594095372  1.0000
  H   H15       1.0  0.5729096873090183  0.7442687971701865  0.4493301592820331  1.0000
  H   H16       1.0  0.9270903127452981  0.24426879724108458  0.05066984093368725  1.0000
  H   H17       1.0  0.008779430771291147  0.3057602166409097  0.7936917093456389  1.0000
  H   H18       1.0  0.4912205702409445  0.8057602165700116  0.7063082911250896  1.0000
  H   H19       1.0  0.9912205697619848  0.6942397832172943  0.20630829099758557  1.0000
  H   H20       1.0  0.5087794302923314  0.19423978328819227  0.2936917092181348  1.0000
  H   H21       1.0  0.34149627444462366  0.6095016760519725  0.496656540302983  1.0000
  H   H22       1.0  0.15850372582201433  0.10950167560107338  0.0033434598686292653  1.0000
  H   H23       1.0  0.6585037248409059  0.39049832432802856  0.5033434597992666  1.0000
  H   H24       1.0  0.8414962747187876  0.8904983242571305  0.9966565395484295  1.0000
  H   H25       1.0  0.6659820491757231  0.20632508728742835  0.4788343527976773  1.0000
  H   H26       1.0  0.8340179508785932  0.7063250872165303  0.021165647418043103  1.0000
  H   H27       1.0  0.3340179513575529  0.7936749125707755  0.5211656475455472  1.0000
  H   H28       1.0  0.16598204840693626  0.2936749126416736  0.9788343526842065  1.0000
  H   H29       1.0  0.6036724581074459  0.6235045983710974  0.6993662132285458  1.0000
  H   H30       1.0  0.8963275426924682  0.12350459844199543  0.8006337872862909  1.0000
  H   H31       1.0  0.3963275424258301  0.37649540148710653  0.30063378711467864  1.0000
  H   H32       1.0  0.10367245784080784  0.8764954019380057  0.19936621305693356  1.0000
  H   H33       1.0  0.2112562897824398  0.4892373626343151  0.4863579547575222  1.0000
  H   H34       1.0  0.2887437092364517  0.9892373625634171  0.01364204517311524  1.0000
  H   H35       1.0  0.7887437095106158  0.5107626372238887  0.5136420444185618  1.0000
  H   H36       1.0  0.7112562900490778  0.010762637294786822  0.9863579549291345  1.0000
  H   H37       1.0  0.08267122960630846  0.5625078766448249  0.2886169893624676  1.0000
  H   H38       1.0  0.41732877066032953  0.06250787671572297  0.21138301080914462  1.0000
  H   H39       1.0  0.9173287709344935  0.43749212321337894  0.7113830100545911  1.0000
  H   H40       1.0  0.5826712298729464  0.937492123142481  0.7886169895340798  1.0000
  H   H41       1.0  0.7264574710490322  0.4217380515388282  0.058924793510703316  1.0000
  H   H42       1.0  0.773542529005284  0.9217380514679301  0.44107520670501704  1.0000
  H   H43       1.0  0.2735425282364973  0.5782619488411729  0.9410752065915462  1.0000
  H   H44       1.0  0.22645747152799195  0.07826194839027374  0.5589247936382074  1.0000
  H   H45       1.0  0.1367230038226134  0.36803693145206046  0.5280627181525368  1.0000
  H   H46       1.0  0.36327699594940177  0.8680369313811623  0.971937281151051  1.0000
  H   H47       1.0  0.863276995462916  0.6319630684061434  0.47193728194971274  1.0000
  H   H48       1.0  0.6367230045914003  0.13196306847704145  0.028062718266007584  1.0000
  H   H49       1.0  0.993120148715603  0.3068173417878965  0.4454137137454807  1.0000
  H   H50       1.0  0.5068798513387134  0.8068173417169985  0.054586286470239685  1.0000
  H   H51       1.0  0.006879850577452627  0.6931826585921045  0.5545862854306033  1.0000
  H   H52       1.0  0.49312014919456265  0.1931826586630026  0.9454137138729848  1.0000
  H   H53       1.0  0.8159036917704982  0.33242052107213604  0.23151174071340624  1.0000
  H   H54       1.0  0.6840963082838181  0.832420521001238  0.2684882595023141  1.0000
  H   H55       1.0  0.18409630877030372  0.6675794787860678  0.7684882587036526  1.0000
  H   H56       1.0  0.31590369100171145  0.16757947885696586  0.7315117405999355  1.0000
  H   H57       1.0  0.925972701135837  0.6025864671888156  0.0860144844862722  1.0000
  H   H58       1.0  0.5740272989184793  0.10258646725971371  0.41398551572944814  1.0000
  H   H59       1.0  0.07402729939743902  0.3974135326693882  0.9139855158569522  1.0000
  H   H60       1.0  0.42597270036705015  0.8974135325984901  0.5860144843728015  1.0000
  H   H61       1.0  0.720760402098359  0.5682434642911601  0.038318532314048095  1.0000
  H   H62       1.0  0.7792395979559572  0.06824346436205825  0.4616814679016722  1.0000
  H   H63       1.0  0.27923959718717045  0.4317565355670437  0.9616814677882014  1.0000
  H   H64       1.0  0.22076040257731874  0.9317565354961456  0.5383185324415523  1.0000
  H   H65       1.0  0.8790976001703604  0.5378581163553324  0.9658392315619283  1.0000
  H   H66       1.0  0.620902399381807  0.037858116426230506  0.5341607687119336  1.0000
  H   H67       1.0  0.12090239911516903  0.4621418835028715  0.034160768540321386  1.0000
  H   H68       1.0  0.37909760115146895  0.9621418839537706  0.4658392316312908  1.0000
  C   C1        1.0  0.854040159262961  0.2506410990644986  0.6344315061018517  1.0000
  C   C2        1.0  0.645959841544479  0.7506410989936005  0.8655684934868194  1.0000
  C   C3        1.0  0.14595984127031508  0.7493589007937054  0.3655684942413727  1.0000
  C   C4        1.0  0.3540401589963229  0.24935890086460338  0.13443150593023953  1.0000
  C   C5        1.0  0.5837312488765357  0.30738047316576944  0.7162024072413202  1.0000
  C   C6        1.0  0.9162687506831577  0.8073804730948714  0.783797592106376  1.0000
  C   C7        1.0  0.4162687516642662  0.6926195266924344  0.2837975921757386  1.0000
  C   C8        1.0  0.08373124860237173  0.1926195267633325  0.21620240799587362  1.0000
  C   C9        1.0  0.3839444129357974  0.4629590831611149  0.661624119418531  1.0000
  C   C10       1.0  0.11605558682869174  0.9629590830902169  0.8383758808112226  1.0000
  C   C11       1.0  0.6160555875974785  0.5370409172188862  0.3383758809246933  1.0000
  C   C12       1.0  0.8839444124568377  0.037040916767987056  0.16162411929102707  1.0000
  C   C13       1.0  0.7478666136958777  0.32189549979163345  0.7839704629030988  1.0000
  C   C14       1.0  0.7521333871040362  0.8218954997207354  0.7160295376117378  1.0000
  C   C15       1.0  0.2521333868373983  0.6781045005883676  0.21602953744012562  1.0000
  C   C16       1.0  0.2478666134292397  0.17810450065926567  0.2839704627314866  1.0000
  C   C17       1.0  0.5545022922978511  0.2657248115995546  0.605657188499118  1.0000
  C   C18       1.0  0.9454977085020628  0.7657248115286565  0.8943428120157186  1.0000
  C   C19       1.0  0.44549770823542495  0.7342751887804465  0.3943428118441065  1.0000
  C   C20       1.0  0.05450229203121306  0.2342751883295474  0.10565718832750573  1.0000
  C   C21       1.0  0.880642936972795  0.2942915960673878  0.7431993017735681  1.0000
  C   C22       1.0  0.6193570638271189  0.7942915959964898  0.7568006987412684  1.0000
  C   C23       1.0  0.11935706356048091  0.705708403790816  0.2568006985696563  1.0000
  C   C24       1.0  0.3806429367061571  0.2057084038617141  0.2431993016019559  1.0000
  C   C25       1.0  0.3899876305824921  0.5712562634722829  0.570956230503291  1.0000
  C   C26       1.0  0.11001236918199706  0.07125626302138363  0.9290437697264627  1.0000
  C   C27       1.0  0.6100123687030373  0.4287437369077183  0.4290437695989586  1.0000
  C   C28       1.0  0.889987631351279  0.9287437368368203  0.07095623061676176  1.0000
  C   C29       1.0  0.6875349047133403  0.23776493155589024  0.5653440530188566  1.0000
  C   C30       1.0  0.8124650948388272  0.7377649314849922  0.9346559472550052  1.0000
  C   C31       1.0  0.3124650945721892  0.7622350683023137  0.43465594708339306  1.0000
  C   C32       1.0  0.1875349056944488  0.26223506837321175  0.06534405308821921  1.0000
  C   C33       1.0  0.5222435790759627  0.5787519633847501  0.6732390222586517  1.0000
  C   C34       1.0  0.9777564217314773  0.07875196345564815  0.8267609773300193  1.0000
  C   C35       1.0  0.47775642146483926  0.421248036995251  0.32676097715840713  1.0000
  C   C36       1.0  0.02224357880932474  0.9212480369243529  0.17323902208703948  1.0000
  C   C37       1.0  0.900226445439121  0.5000852469831791  0.15799715830549485  1.0000
  C   C38       1.0  0.5997735533674488  8.524705407713263e-05  0.3420028416692507  1.0000
  C   C39       1.0  0.09977355384640836  0.499914753396822  0.8420028417967547  1.0000
  C   C40       1.0  0.40022644591808076  0.9999147533259239  0.6579971584329989  1.0000
  C   C41       1.0  0.02046216309621004  0.511882360816977  0.27095710650690463  1.0000
  C   C42       1.0  0.4795378371704279  0.011882360887875056  0.22904289366470762  1.0000
  C   C43       1.0  0.9795378374370659  0.48811763904122685  0.7290428938363198  1.0000
  C   C44       1.0  0.5204621621151015  0.9881176389703288  0.770957106437542  1.0000
  C   C45       1.0  0.9966431773725388  0.40066956292459066  0.3512102720607103  1.0000
  C   C46       1.0  0.5033568226817776  0.9006695633754898  0.1487897281550101  1.0000
  C   C47       1.0  0.003356821912990686  0.5993304369336132  0.6487897280415393  1.0000
  C   C48       1.0  0.4966431778514984  0.09933043700451129  0.8512102721882143  1.0000
  C   C49       1.0  0.8241670495852729  0.4337007436292486  0.14471125249900427  1.0000
  C   C50       1.0  0.6758329504765694  0.9337007435583505  0.3552887467905504  1.0000
  C   C51       1.0  0.17583295095552903  0.5662992562289554  0.8552887469180545  1.0000
  C   C52       1.0  0.3241670488164861  0.06629925629985339  0.6447112523855336  1.0000
  C   C53       1.0  0.8716284784151755  0.3840922220466294  0.2394798419982131  1.0000
  C   C54       1.0  0.6283715216466668  0.8840922224975286  0.2605201572913416  1.0000
  C   C55       1.0  0.1283715221256264  0.6159077778115745  0.7605201574188457  1.0000
  C   C56       1.0  0.37162847764638873  0.11590777788247252  0.7394798418847424  1.0000
  C   C57       1.0  0.8536392547163857  0.5549120725462705  0.05649240474713056  1.0000
  C   C58       1.0  0.6463607453379305  0.05491207261716854  0.44350759546858975  1.0000
  C   C59       1.0  0.14636074581689026  0.4450879273119334  0.943507595596094  1.0000
  C   C60       1.0  0.35363925394759893  0.9450879272410353  0.5564924046336598  1.0000
  N   N1        1.0  0.3239072326457142  0.39862314418095485  0.6664826831673072  1.0000
  N   N2        1.0  0.176092767126301  0.8986231441100567  0.8335173161362809  1.0000
  N   N3        1.0  0.6760927666473413  0.6013768561990462  0.33351731600877677  1.0000
  N   N4        1.0  0.8239072334069749  0.1013768562699443  0.16648268420694357  1.0000
  N   N5        1.0  0.31447689920981936  0.5068360328487403  0.5655193068866722  1.0000
  N   N6        1.0  0.18552310055466986  0.006836032397841172  0.9344806933430816  1.0000
  N   N7        1.0  0.6855231000757103  0.4931639675312608  0.4344806932155775  1.0000
  N   N8        1.0  0.8144768999786062  0.9931639674603628  0.06551930700014293  1.0000
  N   N9        1.0  0.9869171355722052  0.22375802792403973  0.5972136157964859  1.0000
  N   N10       1.0  0.5130828639874883  0.7237580278531417  0.9027863835512101  1.0000
  N   N11       1.0  0.0130828637208503  0.7762419719341641  0.402786383379598  1.0000
  N   N12       1.0  0.4869171365533137  0.2762419720050622  0.09721361586584855  1.0000
  N   N13       1.0  0.06845767949347661  0.4645272596280677  0.3651863464361061  1.0000
  N   N14       1.0  0.43154231952541483  0.9645272600789668  0.13481365349453134  1.0000
  N   N15       1.0  0.9315423197920529  0.5354727402301362  0.6348136536661436  1.0000
  N   N16       1.0  0.5684576797676406  0.03547274030103429  0.8651863456815527  1.0000
  N   N17       1.0  0.047811549555141934  0.3542114525363559  0.4475348641800196  1.0000
  N   N18       1.0  0.45218845071149605  0.8542114524654578  0.05246513599159266  1.0000
  N   N19       1.0  0.9521884497303875  0.6457885478436451  0.5524651359222301  1.0000
  N   N20       1.0  0.5478115498217798  0.14578854791454327  0.9475348643516318  1.0000
  O   O1        1.0  0.4904472914411976  0.3748343899910234  0.8941235780074878  1.0000
  O   O2        1.0  0.009552708330817568  0.8748343899201254  0.6058764212961003  1.0000
  O   O3        1.0  0.5095527090920783  0.6251656098671804  0.10587642233573673  1.0000
  O   O4        1.0  0.9904472909622379  0.12516560993807851  0.39412357787998364  1.0000
  O   O5        1.0  0.29623258017528764  0.28700447780695165  0.7689425802487485  1.0000
  O   O6        1.0  0.20376741958920158  0.7870044777360536  0.7310574199810053  1.0000
  O   O7        1.0  0.703767419110242  0.7129955220512522  0.23105741985350123  1.0000
  O   O8        1.0  0.7962325809440745  0.21299552212215028  0.26894258036221913  1.0000
  S   S1        1.0  0.4170258099539567  0.3425690776657008  0.7695226409586082  1.0000
  S   S2        1.0  0.08297418981053245  0.8425690775948027  0.7304773592711455  1.0000
  S   S3        1.0  0.5829741893315729  0.6574309227143003  0.23047735914364148  1.0000
  S   S4        1.0  0.917025809474997  0.15743092226340114  0.2695226408311041  1.0000
  S   S5        1.0  0.5514145350779588  0.5043128646902443  0.7672331662724106  1.0000
  S   S6        1.0  0.9485854657219551  0.004312864761142353  0.7327668342424261  1.0000
  S   S7        1.0  0.44858546545531713  0.4956871351679596  0.2327668340708139  1.0000
  S   S8        1.0  0.051414534811320856  0.9956871350970616  0.26723316610079834  1.0000
