data_image0
_chemical_formula_structural       H56C56N20O8S8Cl4
_chemical_formula_sum              "H56 C56 N20 O8 S8 Cl4"
_cell_length_a       8.317783772624432
_cell_length_b       19.08923158996446
_cell_length_c       10.789049265541964
_cell_angle_alpha    90.0
_cell_angle_beta     106.13525034242535
_cell_angle_gamma    90.0

_space_group_name_H-M_alt    "P 1"
_space_group_IT_number       1

loop_
  _space_group_symop_operation_xyz
  'x, y, z'

loop_
  _atom_site_type_symbol
  _atom_site_label
  _atom_site_symmetry_multiplicity
  _atom_site_fract_x
  _atom_site_fract_y
  _atom_site_fract_z
  _atom_site_occupancy
  H   H1        1.0  0.20907701524568748  0.489956165910679  0.48460663984862645  1.0000
  H   H2        1.0  0.2909229843612786  0.989956165649682  0.015393360546682902  1.0000
  H   H3        1.0  0.7909229848201395  0.5100438340911829  0.515393359975541  1.0000
  H   H4        1.0  0.7090770148526536  0.010043834352179756  0.9846066402439358  1.0000
  H   H5        1.0  0.9653964173940576  0.18849770317060202  0.5282168217428503  1.0000
  H   H6        1.0  0.5346035834804084  0.6884977034334607  0.971783178475048  1.0000
  H   H7        1.0  0.034603582671769495  0.8115022968312597  0.4717831780813172  1.0000
  H   H8        1.0  0.4653964165854188  0.3115022965684011  0.028216821349119674  1.0000
  H   H9        1.0  0.09837224781246913  0.23919983517830543  0.6496372238937407  1.0000
  H   H10       1.0  0.4016277530161065  0.7391998354411641  0.8503627767178711  1.0000
  H   H11       1.0  0.9016277526031357  0.7608001648235564  0.35036277689529927  1.0000
  H   H12       1.0  0.5983722470497206  0.2608001645606977  0.14963722310629657  1.0000
  H   H13       1.0  0.7731248298737075  0.35704532201197364  0.8696631755706923  1.0000
  H   H14       1.0  0.7268751697990856  0.8570453222748323  0.6303368246487846  1.0000
  H   H15       1.0  0.22687517019211956  0.6429546779898881  0.1303368242534752  1.0000
  H   H16       1.0  0.2731248290650687  0.1429546777270295  0.36966317517696173  1.0000
  H   H17       1.0  0.008128685731983809  0.3112010471455054  0.7942413640276905  1.0000
  H   H18       1.0  0.4918713135451414  0.8112010468845084  0.7057586356206275  1.0000
  H   H19       1.0  0.9918713143338432  0.6887989528563565  0.20575863579647705  1.0000
  H   H20       1.0  0.5081286865206855  0.1887989531173533  0.29424136420354  1.0000
  H   H21       1.0  0.42169822174208427  0.25392038894578806  0.5502544490594812  1.0000
  H   H22       1.0  0.07830177753504096  0.7539203886847912  0.9497455505888368  1.0000
  H   H23       1.0  0.5783017783237429  0.7460796110560737  0.44974555076468636  1.0000
  H   H24       1.0  0.921698222530786  0.24607961079321508  0.050254449235330685  1.0000
  H   H25       1.0  0.6570806718543191  0.20755788316188462  0.4777914583920058  1.0000
  H   H26       1.0  0.8429193290002098  0.7075578829008877  0.02220854160801128  1.0000
  H   H27       1.0  0.34291932821150795  0.7924421168399772  0.5222085414321617  1.0000
  H   H28       1.0  0.15708067106561718  0.29244211710097406  0.9777914582161562  1.0000
  H   H29       1.0  0.3462532082042797  0.6099412522252122  0.5011036397971157  1.0000
  H   H30       1.0  0.15374679107284556  0.10994125196235346  0.9988963598512023  1.0000
  H   H31       1.0  0.6537467918615473  0.3900587477766497  0.49889636002705184  1.0000
  H   H32       1.0  0.8462532089929814  0.8900587480395084  0.0011036399729651713  1.0000
  H   H33       1.0  0.6103826887601299  0.6204275522659763  0.7094524548440454  1.0000
  H   H34       1.0  0.8896173109126632  0.12042755200311758  0.7905475453754316  1.0000
  H   H35       1.0  0.38961731130569716  0.37957244773588555  0.2905475449801222  1.0000
  H   H36       1.0  0.11038268915316375  0.8795724479987442  0.20945245444873598  1.0000
  H   H37       1.0  0.08900760218292694  0.5660071700151718  0.2870353269717128  1.0000
  H   H38       1.0  0.41099239742403915  0.06600716975231301  0.21296467342359657  1.0000
  H   H39       1.0  0.9109923978829001  0.43399282998669014  0.7129646728524548  1.0000
  H   H40       1.0  0.589007601789893  0.9339928302495487  0.7870353273670221  1.0000
  H   H41       1.0  0.7153476915139506  0.43212300983013835  0.04167406314511916  1.0000
  H   H42       1.0  0.7846523081389056  0.9321230100929971  0.4583259368564767  1.0000
  H   H43       1.0  0.2846523085518765  0.5678769901717234  0.9583259366790484  1.0000
  H   H44       1.0  0.21534769192692138  0.06787698990886476  0.5416740629676909  1.0000
  H   H45       1.0  0.9702246872276846  0.3099533044122399  0.4290476983344937  1.0000
  H   H46       1.0  0.5297753124251715  0.809953304151243  0.07095230166710212  1.0000
  H   H47       1.0  0.02977531318792005  0.690046695589622  0.5709523024545463  1.0000
  H   H48       1.0  0.47022468764065556  0.1900466958506188  0.9290476981570653  1.0000
  H   H49       1.0  0.11958346174878018  0.368621784844358  0.5194644493728451  1.0000
  H   H50       1.0  0.3804165375283451  0.868621784583361  0.980535550275473  1.0000
  H   H51       1.0  0.8804165383170467  0.6313782151575039  0.4805355504513224  1.0000
  H   H52       1.0  0.6195834625374819  0.13137821541850073  0.019464449548694605  1.0000
  H   H53       1.0  0.7910179587973187  0.3408324420675182  0.21344031101490946  1.0000
  H   H54       1.0  0.7089820408555375  0.8408324423303769  0.2865596889866864  1.0000
  H   H55       1.0  0.20898204126850828  0.6591675579343437  0.7865596888092581  1.0000
  H   H56       1.0  0.2910179592102895  0.15916755767148494  0.7134403108374812  1.0000
  C   C1        1.0  0.5819781373181743  0.3073365018571144  0.716803526683901  1.0000
  C   C2        1.0  0.9180218623546189  0.8073365021199731  0.783196473535576  1.0000
  C   C3        1.0  0.41802186274765274  0.6926634981447474  0.2831964731402666  1.0000
  C   C4        1.0  0.0819781377112082  0.1926634978818887  0.21680352628859162  1.0000
  C   C5        1.0  0.8500506139409981  0.25329378750593295  0.6343027683840043  1.0000
  C   C6        1.0  0.6499493853820172  0.7532937877687916  0.8656972308706001  1.0000
  C   C7        1.0  0.14994938612482892  0.746706212495929  0.3656972314401632  1.0000
  C   C8        1.0  0.35005061468380977  0.2467062122330702  0.1343027689535674  1.0000
  C   C9        1.0  0.7475512190109427  0.32380480014971147  0.7844197703032935  1.0000
  C   C10       1.0  0.752448781863523  0.8238048004125701  0.7155802299146046  1.0000
  C   C11       1.0  0.2524487810548843  0.6761951998521504  0.215580229520874  1.0000
  C   C12       1.0  0.24755121820230402  0.1761951995892917  0.28441976990956297  1.0000
  C   C13       1.0  0.879522159972857  0.29765136764263955  0.743386755237363  1.0000
  C   C14       1.0  0.6204778393501584  0.7976513673816427  0.7566132440172416  1.0000
  C   C15       1.0  0.12047784009297004  0.7023486323592223  0.2566132445868046  1.0000
  C   C16       1.0  0.37952215951399604  0.20234863262021915  0.24338675580850472  1.0000
  C   C17       1.0  0.38257936872277276  0.4609521592595642  0.6612969875954899  1.0000
  C   C18       1.0  0.11742063055435244  0.9609521595224229  0.838703012052828  1.0000
  C   C19       1.0  0.6174206313430541  0.5390478407422977  0.3387030122286776  1.0000
  C   C20       1.0  0.8825793695114745  0.039047840479439  0.16129698777133947  1.0000
  C   C21       1.0  0.5499917196617641  0.26547092669063455  0.6055289957438156  1.0000
  C   C22       1.0  0.9500082796612512  0.7654709264296377  0.8944710035107889  1.0000
  C   C23       1.0  0.45000828040406293  0.7345290733112273  0.39447100408035196  1.0000
  C   C24       1.0  0.04999171920290314  0.23452907357222413  0.10552899631495744  1.0000
  C   C25       1.0  0.6818154785754484  0.23910675442795537  0.5648783692257254  1.0000
  C   C26       1.0  0.8181845222990173  0.7391067541669586  0.9351216309921727  1.0000
  C   C27       1.0  0.3181845214903786  0.7608932455739065  0.4351216305984421  1.0000
  C   C28       1.0  0.18181547811658746  0.2608932458349033  0.06487836979686724  1.0000
  C   C29       1.0  0.3937507979871954  0.5702448832839723  0.5741823637687399  1.0000
  C   C30       1.0  0.10624920284138026  0.0702448830211136  0.9258176368428719  1.0000
  C   C31       1.0  0.6062492020786316  0.42975511671788946  0.4258176360554276  1.0000
  C   C32       1.0  0.8937507975742245  0.9297551169807483  0.07418236394616813  1.0000
  C   C33       1.0  0.5275777539440449  0.5759540486574646  0.6795609960164202  1.0000
  C   C34       1.0  0.972422246930421  0.07595404891846144  0.8204390042014781  1.0000
  C   C35       1.0  0.47242224612178213  0.42404595134439727  0.3204390038077474  1.0000
  C   C36       1.0  0.02757775313540616  0.9240459510834004  0.17956099562268954  1.0000
  C   C37       1.0  0.8997553736356767  0.5058123976596366  0.1514697533314006  1.0000
  C   C38       1.0  0.6002446260171795  0.0058123979206334605  0.3485302466701952  1.0000
  C   C39       1.0  0.10024462643015024  0.4941876023422252  0.848530246492767  1.0000
  C   C40       1.0  0.3997553740486475  0.9941876020812285  0.6514697531539723  1.0000
  C   C41       1.0  0.02052111205834621  0.5167078508904173  0.2672729455155319  1.0000
  C   C42       1.0  0.4794788871988421  0.016707850627558644  0.23272705391490503  1.0000
  C   C43       1.0  0.9794788868058081  0.48329214911144447  0.7327270543102143  1.0000
  C   C44       1.0  0.520521112866985  0.9832921493743032  0.7672729459092625  1.0000
  C   C45       1.0  0.9797865334188921  0.4054106826420669  0.34218749892709993  1.0000
  C   C46       1.0  0.520213466233964  0.90541068238107  0.15781250107449585  1.0000
  C   C47       1.0  0.020213465445262202  0.5945893173597948  0.6578125008986463  1.0000
  C   C48       1.0  0.479786533831863  0.09458931762079176  0.8421874987496717  1.0000
  C   C49       1.0  0.8131555345192132  0.44188603403159327  0.1308985286473968  1.0000
  C   C50       1.0  0.6868444651336431  0.9418860337705964  0.369101471354199  1.0000
  C   C51       1.0  0.18684446589639164  0.5581139659702686  0.8691014721416431  1.0000
  C   C52       1.0  0.313155534932184  0.05811396623126543  0.6308985284699686  1.0000
  C   C53       1.0  0.8538373225589517  0.3913376300556427  0.22604554565738164  1.0000
  C   C54       1.0  0.646162678295577  0.8913376303185014  0.27395445434263543  1.0000
  C   C55       1.0  0.14616267750687523  0.6086623699462191  0.7739544541667859  1.0000
  C   C56       1.0  0.35383732177024996  0.10866236968336042  0.7260455454815321  1.0000
  N   N1        1.0  0.31844224604079524  0.39693388517447953  0.66330072572386  1.0000
  N   N2        1.0  0.18155775323633008  0.8969338849134827  0.8366992739244581  1.0000
  N   N3        1.0  0.6815577540250319  0.6030661148273823  0.3366992741003076  1.0000
  N   N4        1.0  0.818442246829497  0.10306611508837916  0.16330072589970948  1.0000
  N   N5        1.0  0.3146471720856874  0.5062024301219131  0.5648679180262832  1.0000
  N   N6        1.0  0.18535282754121554  0.006202430382909951  0.935132082586907  1.0000
  N   N7        1.0  0.6853528279801396  0.4937975698799487  0.4351320817978844  1.0000
  N   N8        1.0  0.8146471728743891  0.9937975696189519  0.06486791820213278  1.0000
  N   N9        1.0  0.980470617867978  0.22662900963883453  0.5967457376828393  1.0000
  N   N10       1.0  0.5195293818048151  0.7266290099016932  0.9032542625366375  1.0000
  N   N11       1.0  0.019529380996176467  0.7733709903630273  0.403254262142907  1.0000
  N   N12       1.0  0.4804706186107896  0.2733709901001686  0.09674573825240237  1.0000
  N   N13       1.0  0.0595935976069967  0.46796578206407685  0.360495932633993  1.0000
  N   N14       1.0  0.4404064019999694  0.96796578180308  0.13950406776131632  1.0000
  N   N15       1.0  0.9404064028086081  0.5320342179377849  0.639504068155047  1.0000
  N   N16       1.0  0.5595935980658575  0.03203421819878181  0.8604959320628511  1.0000
  N   N17       1.0  0.02252996462825551  0.3582751310741855  0.4393180486824448  1.0000
  N   N18       1.0  0.4774700346289327  0.8582751313370443  0.06068195074799211  1.0000
  N   N19       1.0  0.9774700354375715  0.6417248689276763  0.5606819511417227  1.0000
  N   N20       1.0  0.5225299642352217  0.1417248686648176  0.9393180490777542  1.0000
  O   O1        1.0  0.48755519613536147  0.3726947596853607  0.8949918503184527  1.0000
  O   O2        1.0  0.012444804343436295  0.8726947594243638  0.6050081493282864  1.0000
  O   O3        1.0  0.5124448039304654  0.6273052403165011  0.1050081495057147  1.0000
  O   O4        1.0  0.9875551957223906  0.127305240577498  0.3949918504958811  1.0000
  O   O5        1.0  0.29626880238161585  0.28372398618953965  0.7647219021367977  1.0000
  O   O6        1.0  0.20373119689550936  0.7837239864523984  0.7352780975115203  1.0000
  O   O7        1.0  0.7037311976842111  0.7162760138123221  0.23527809768736985  1.0000
  O   O8        1.0  0.7962688031703177  0.21627601354946352  0.2647219023126472  1.0000
  S   S1        1.0  0.4149901114143126  0.3405201948211108  0.7684664865123884  1.0000
  S   S2        1.0  0.08500988821259041  0.840520194560114  0.7315335141008019  1.0000
  S   S3        1.0  0.5850098877996196  0.6594798051807511  0.23153351427823018  1.0000
  S   S4        1.0  0.9149901118532366  0.15947980544174792  0.2684664857233656  1.0000
  S   S5        1.0  0.5541080659209794  0.5002241381481285  0.7714346252751674  1.0000
  S   S6        1.0  0.9458919337518136  0.0002241384091253495  0.7285653749443095  1.0000
  S   S7        1.0  0.44589193414484757  0.4997758618537334  0.22856537454900017  1.0000
  S   S8        1.0  0.05410806631401327  0.9997758615927365  0.27143462487985803  1.0000
  Cl  Cl1       1.0  0.8619121535825515  0.5697488633181934  0.03322582119166131  1.0000
  Cl  Cl2       1.0  0.6380878460703048  0.06974886357919025  0.4667741788099345  1.0000
  Cl  Cl3       1.0  0.13808784648327557  0.4302511366836685  0.9667741786325064  1.0000
  Cl  Cl4       1.0  0.3619121543453001  0.9302511364226715  0.5332258219791054  1.0000
