data_image0
_chemical_formula_structural       H56C56N20O8S8Br4
_chemical_formula_sum              "H56 C56 N20 O8 S8 Br4"
_cell_length_a       8.288561254646826
_cell_length_b       19.45408505857788
_cell_length_c       10.93613647804302
_cell_angle_alpha    90.0
_cell_angle_beta     106.82095915713447
_cell_angle_gamma    90.0

_space_group_name_H-M_alt    "P 1"
_space_group_IT_number       1

loop_
  _space_group_symop_operation_xyz
  'x, y, z'

loop_
  _atom_site_type_symbol
  _atom_site_label
  _atom_site_symmetry_multiplicity
  _atom_site_fract_x
  _atom_site_fract_y
  _atom_site_fract_z
  _atom_site_occupancy
  H   H1        1.0  0.08077368725673548  0.5644127193305621  0.28764109046052677  1.0000
  H   H2        1.0  0.4192263118660082  0.06441271929401149  0.21235890961184536  1.0000
  H   H3        1.0  0.9192263121947272  0.43558728022850834  0.7123589096828935  1.0000
  H   H4        1.0  0.5807736875854544  0.935587280265059  0.7876410905315747  1.0000
  H   H5        1.0  0.7091212243113503  0.4329707701306687  0.03613040163531614  1.0000
  H   H6        1.0  0.7908787757081785  0.9329707696531885  0.4638695984136493  1.0000
  H   H7        1.0  0.2908787763460877  0.5670292299424325  0.96386959850678  1.0000
  H   H8        1.0  0.2091212237432841  0.06702922990588196  0.5361304017297709  1.0000
  H   H9        1.0  0.9702853603064733  0.3099619592411098  0.41660930646663674  1.0000
  H   H10       1.0  0.5297146397130555  0.8099619592776605  0.08339069358232865  1.0000
  H   H11       1.0  0.029714640350964744  0.6900380408319915  0.5833906936754594  1.0000
  H   H12       1.0  0.4702853597384071  0.19003804079544087  0.9166093065610915  1.0000
  H   H13       1.0  0.11902065876980046  0.3674837001315448  0.5088667589426413  1.0000
  H   H14       1.0  0.38097934131957134  0.8674837001680954  0.9911332412939095  1.0000
  H   H15       1.0  0.8809793406816622  0.6325162999415566  0.4911332412007789  1.0000
  H   H16       1.0  0.6190206593378665  0.13251629990500588  0.008866758848186471  1.0000
  H   H17       1.0  0.7888296218403258  0.34171641996953217  0.2029289938055354  1.0000
  H   H18       1.0  0.7111703778127909  0.8417164200060828  0.2970710052881586  1.0000
  H   H19       1.0  0.21117037724472487  0.6582835801035691  0.7970710053826133  1.0000
  H   H20       1.0  0.28882962247823507  0.15828358006701848  0.702928993898666  1.0000
  H   H21       1.0  0.20460016479468576  0.48809735597476267  0.4821982169668381  1.0000
  H   H22       1.0  0.29539983553403315  0.9880973560113133  0.01780178310420993  1.0000
  H   H23       1.0  0.7953998358627522  0.5119026440983386  0.5178017831752579  1.0000
  H   H24       1.0  0.7046001651234047  0.011902644061787966  0.9821982170378861  1.0000
  H   H25       1.0  0.09938130410137595  0.24101104297025963  0.6352500092557535  1.0000
  H   H26       1.0  0.40061869598799593  0.7410110430068104  0.8647499909807973  1.0000
  H   H27       1.0  0.900618696556062  0.7589889571028416  0.3647499908863426  1.0000
  H   H28       1.0  0.5993813034634667  0.258988957066291  0.13525000916262278  1.0000
  H   H29       1.0  0.9627549413777163  0.19286690372239382  0.5129900611793067  1.0000
  H   H30       1.0  0.5372450592420288  0.6928669037589444  0.9870099380785662  1.0000
  H   H31       1.0  0.03724505891330975  0.8071330963507075  0.4870099380075181  1.0000
  H   H32       1.0  0.46275494104899734  0.30713309631415686  0.012990061108258654  1.0000
  H   H33       1.0  0.011845901268523336  0.31089810812424473  0.7802320120552027  1.0000
  H   H34       1.0  0.48815409882084854  0.8108981081607954  0.7197679881813481  1.0000
  H   H35       1.0  0.9881540993889145  0.6891018914348257  0.21976798808689332  1.0000
  H   H36       1.0  0.5118459006306141  0.18910189139827507  0.280232011962072  1.0000
  H   H37       1.0  0.7776748512025184  0.3540328933106596  0.8577022214088125  1.0000
  H   H38       1.0  0.7223251497836385  0.8540328933472102  0.6422977788043316  1.0000
  H   H39       1.0  0.22232514945491952  0.6459671067624417  0.14229777873328361  1.0000
  H   H40       1.0  0.2776748508737995  0.14596710672589105  0.35770222133776447  1.0000
  H   H41       1.0  0.6536699293248923  0.2166181106595849  0.45800725131446746  1.0000
  H   H42       1.0  0.8463300706946365  0.7166181106961356  0.04199274873449792  1.0000
  H   H43       1.0  0.34633007012657047  0.7833818894135165  0.5419927488289527  1.0000
  H   H44       1.0  0.15366992996280146  0.2833818893769658  0.9580072514075982  1.0000
  H   H45       1.0  0.4189316923645527  0.25973482303512524  0.5333349241022431  1.0000
  H   H46       1.0  0.0810683077248192  0.759734823071676  0.9666650761343079  1.0000
  H   H47       1.0  0.5810683082928852  0.7402651770379761  0.46666507603985297  1.0000
  H   H48       1.0  0.9189316917266435  0.2402651770014254  0.03333492400911239  1.0000
  H   H49       1.0  0.338966497443793  0.6062988613694398  0.503875268273387  1.0000
  H   H50       1.0  0.16103350264557886  0.10629886133288911  0.9961247319631639  1.0000
  H   H51       1.0  0.661033503213645  0.3937011387036615  0.49612473186870915  1.0000
  H   H52       1.0  0.8389664968058838  0.8937011382261814  0.003875268180256224  1.0000
  H   H53       1.0  0.6066864204563112  0.6151510345495949  0.7114173071553689  1.0000
  H   H54       1.0  0.8933135805298458  0.11515103451304425  0.7885826930577753  1.0000
  H   H55       1.0  0.3933135802011267  0.38484896552350645  0.2885826929867271  1.0000
  H   H56       1.0  0.1066864201275922  0.8848489655600572  0.2114173070843209  1.0000
  C   C1        1.0  0.013404808822780395  0.5156779940970072  0.26513526542553695  1.0000
  C   C2        1.0  0.48659519150593855  0.015677994060456522  0.23486473464551105  1.0000
  C   C3        1.0  0.9865951918346575  0.48432200597609415  0.7348647347165591  1.0000
  C   C4        1.0  0.5134048087850874  0.9843220060126449  0.7651352645413136  1.0000
  C   C5        1.0  0.9771352666146356  0.4047974821888473  0.3336313183403347  1.0000
  C   C6        1.0  0.5228647334048933  0.904797482225398  0.16636868170863064  1.0000
  C   C7        1.0  0.022864732836827197  0.595202517884254  0.6663686818030855  1.0000
  C   C8        1.0  0.4771352672525447  0.09520251784770337  0.8336313184334655  1.0000
  C   C9        1.0  0.8067847465381877  0.4424102811355323  0.1254863893941654  1.0000
  C   C10       1.0  0.693215253481341  0.9424102811720831  0.37451361065479993  1.0000
  C   C11       1.0  0.19321525291327493  0.5575897189375689  0.8745136107492547  1.0000
  C   C12       1.0  0.30678474717609694  0.057589718901018286  0.6254863894872962  1.0000
  C   C13       1.0  0.8920783706803611  0.5054355417071869  0.14941967439384157  1.0000
  C   C14       1.0  0.6079216293391676  0.005435541670636141  0.35058032565512376  1.0000
  C   C15       1.0  0.10792162877110152  0.49456445836591456  0.8505803257495785  1.0000
  C   C16       1.0  0.3920783713182703  0.9945644584024651  0.6494196744869722  1.0000
  C   C17       1.0  0.8498212757434217  0.3917315462049845  0.21769753834159838  1.0000
  C   C18       1.0  0.6501787242761071  0.8917315462415352  0.28230246170736695  1.0000
  C   C19       1.0  0.15017872491401632  0.608268453354086  0.7823024618004977  1.0000
  C   C20       1.0  0.34982127517535555  0.10826845331753529  0.7176975384360532  1.0000
  C   C21       1.0  0.5833100142848197  0.30804994231057836  0.7028930043650539  1.0000
  C   C22       1.0  0.9166899863349253  0.808049942347129  0.7971069948928189  1.0000
  C   C23       1.0  0.41668998600620627  0.6919500577625229  0.2971069948217709  1.0000
  C   C24       1.0  0.08331001395610073  0.19195005772597235  0.2028930042940058  1.0000
  C   C25       1.0  0.8819119917164199  0.29837903877368627  0.7287613078124486  1.0000
  C   C26       1.0  0.6180880080637617  0.7983790388102369  0.7712386924020195  1.0000
  C   C27       1.0  0.1180880077350428  0.7016209612994151  0.27123869233097153  1.0000
  C   C28       1.0  0.3819119925936762  0.2016209612628644  0.22876130774007652  1.0000
  C   C29       1.0  0.7506834726047107  0.3231634544143181  0.7710254438071075  1.0000
  C   C30       1.0  0.7493165283814461  0.8231634544508688  0.7289745564060367  1.0000
  C   C31       1.0  0.2493165280527272  0.6768365456587833  0.22897455633498856  1.0000
  C   C32       1.0  0.2506834722759918  0.17683654562223255  0.27102544373605947  1.0000
  C   C33       1.0  0.6799686587374938  0.24494285059676502  0.5472833396499854  1.0000
  C   C34       1.0  0.8200313410426878  0.7449428506333157  0.9527166605644827  1.0000
  C   C35       1.0  0.3200313407139689  0.7550571494763364  0.4527166604934348  1.0000
  C   C36       1.0  0.17996865840877482  0.2550571494397857  0.0472833395789374  1.0000
  C   C37       1.0  0.8500298945809297  0.25661855414777046  0.6184469170235035  1.0000
  C   C38       1.0  0.6499701060388153  0.7566185541843211  0.8815530822343693  1.0000
  C   C39       1.0  0.1499701060765083  0.7433814459253308  0.38155308311859265  1.0000
  C   C40       1.0  0.35002989425221065  0.2433814458887802  0.11844691695245536  1.0000
  C   C41       1.0  0.548755736874738  0.2697588734807161  0.5893209170363629  1.0000
  C   C42       1.0  0.9512442629054437  0.7697588735172668  0.9106790831781053  1.0000
  C   C43       1.0  0.45124426257672473  0.7302411265923853  0.41067908310705725  1.0000
  C   C44       1.0  0.04875573775199425  0.2302411265558346  0.0893209169639908  1.0000
  C   C45       1.0  0.37993609212599216  0.45809770869026256  0.6565420969663359  1.0000
  C   C46       1.0  0.12006390759696779  0.9580977087268133  0.8434579023149437  1.0000
  C   C47       1.0  0.6200639069590587  0.5419022913828387  0.3434579022218129  1.0000
  C   C48       1.0  0.87993609306047  0.041902291346288076  0.1565420978271525  1.0000
  C   C49       1.0  0.3884571096307151  0.5666500787267477  0.5747603189702005  1.0000
  C   C50       1.0  0.11154289045865672  0.06665007869019693  0.9252396812663503  1.0000
  C   C51       1.0  0.6115428910267229  0.43334992134635375  0.4252396811718955  1.0000
  C   C52       1.0  0.8884571089928059  0.9333499213829044  0.07476031887706987  1.0000
  C   C53       1.0  0.523947497321889  0.57149640636005  0.6796287698658613  1.0000
  C   C54       1.0  0.9760525020918805  0.07149640632349925  0.8203712293933356  1.0000
  C   C55       1.0  0.4760525017631616  0.4285035937130514  0.32037122932228745  1.0000
  C   C56       1.0  0.023947496993170163  0.928503593749602  0.17962876979481332  1.0000
  N   N1        1.0  0.05493570597208165  0.46673125426664236  0.355391983171641  1.0000
  N   N2        1.0  0.44506429435663736  0.966731254303193  0.14460801689940705  1.0000
  N   N3        1.0  0.945064293479381  0.533268745806459  0.6446080169717792  1.0000
  N   N4        1.0  0.5549357063008005  0.03326874576990834  0.855391983242689  1.0000
  N   N5        1.0  0.02428463131228179  0.3571279291254358  0.42706966590725287  1.0000
  N   N6        1.0  0.47571536865002517  0.8571279291619863  0.07293033320852377  1.0000
  N   N7        1.0  0.9757153677727688  0.6428720709476656  0.5729303332808959  1.0000
  N   N8        1.0  0.5242846316410007  0.14287207091111492  0.9270696659783008  1.0000
  N   N9        1.0  0.3166157472951672  0.39491911785450073  0.6562675105727827  1.0000
  N   N10       1.0  0.18338425242779272  0.8949191178910515  0.8437324887084969  1.0000
  N   N11       1.0  0.6833842529958587  0.6050808822186006  0.34373248861404204  1.0000
  N   N12       1.0  0.81661574702367  0.10508088218204992  0.1562675114349233  1.0000
  N   N13       1.0  0.3098089040368667  0.5035068562980801  0.5629201525326522  1.0000
  N   N14       1.0  0.19019109568609321  0.0035068562615294314  0.9370798467486273  1.0000
  N   N15       1.0  0.6901910966205713  0.49649314377502124  0.43707984760944396  1.0000
  N   N16       1.0  0.8098089033989574  0.9964931438115718  0.06292015243952137  1.0000
  N   N17       1.0  0.9799557819077674  0.23014738480470576  0.5811286449993412  1.0000
  N   N18       1.0  0.5200442178724142  0.7301473848412564  0.918871355215127  1.0000
  N   N19       1.0  0.020044218749670457  0.7698526152683955  0.41887135514275486  1.0000
  N   N20       1.0  0.47995578157904856  0.26985261523184495  0.08112864492829322  1.0000
  O   O1        1.0  0.299969882198878  0.28206604646156164  0.7521585861680298  1.0000
  O   O2        1.0  0.20003011789049388  0.7820660464981123  0.7478414140685211  1.0000
  O   O3        1.0  0.7000301172525847  0.7179339536115397  0.24784141397539033  1.0000
  O   O4        1.0  0.799969882766944  0.21793395357498907  0.25215858607357494  1.0000
  O   O5        1.0  0.49415528120123187  0.36850063153389195  0.8839360291723611  1.0000
  O   O6        1.0  0.005844718888140034  0.8685006315704425  0.6160639710641898  1.0000
  O   O7        1.0  0.5058447194562061  0.6314993680251785  0.11606397096973492  1.0000
  O   O8        1.0  0.9941552805633227  0.13149936850265873  0.3839360290792304  1.0000
  S   S1        1.0  0.41769308405464467  0.33858423463074483  0.7574976794029221  1.0000
  S   S2        1.0  0.08230691566831527  0.8385842346672954  0.7425023198783575  1.0000
  S   S3        1.0  0.5823069166027933  0.6614157654423566  0.24250232073917397  1.0000
  S   S4        1.0  0.9176930834167354  0.16141576540580585  0.25749767930979134  1.0000
  S   S5        1.0  0.5529370823960756  0.4961481874339857  0.7676290516184273  1.0000
  S   S6        1.0  0.947062917384106  0.9961481874705365  0.7323709485960408  1.0000
  S   S7        1.0  0.447062917055387  0.5038518126391156  0.23237094852499282  1.0000
  S   S8        1.0  0.052937082067356686  0.0038518126025649103  0.2676290515473793  1.0000
  Br  Br1       1.0  0.8516821846905235  0.5759938201287546  0.024248187548656118  1.0000
  Br  Br2       1.0  0.6483178153290051  0.07599382009220393  0.4757518125003092  1.0000
  Br  Br3       1.0  0.14831781596691437  0.42400617994434675  0.9757518125934399  1.0000
  Br  Br4       1.0  0.35168218412245744  0.9240061799808975  0.5242481876431109  1.0000
