data_image0
_chemical_formula_structural       H92C78N14O20Cl6I4
_chemical_formula_sum              "H92 C78 N14 O20 Cl6 I4"
_cell_length_a       9.084180571260971
_cell_length_b       13.990196501440494
_cell_length_c       18.78128890977778
_cell_angle_alpha    72.76848610245227
_cell_angle_beta     78.2953313267532
_cell_angle_gamma    79.54267914754489

_space_group_name_H-M_alt    "P 1"
_space_group_IT_number       1

loop_
  _space_group_symop_operation_xyz
  'x, y, z'

loop_
  _atom_site_type_symbol
  _atom_site_label
  _atom_site_symmetry_multiplicity
  _atom_site_fract_x
  _atom_site_fract_y
  _atom_site_fract_z
  _atom_site_occupancy
  H   H1        1.0  0.8465466190540456  0.692826984650084  0.9677704237540131  1.0000
  H   H2        1.0  0.1534533807421841  0.3071730154882192  0.0322295764238427  1.0000
  H   H3        1.0  0.6742094171117433  0.719311162398892  0.027160660390993713  1.0000
  H   H4        1.0  0.32579058289304097  0.2806888370140548  0.9728393397827566  1.0000
  H   H5        1.0  0.7518823634937368  0.8860262210873888  0.021307666234367615  1.0000
  H   H6        1.0  0.2481176363024931  0.11397377905091437  0.9786923339434882  1.0000
  H   H7        1.0  0.724894170428998  0.8725278568756961  0.9327846819519415  1.0000
  H   H8        1.0  0.2751058293672319  0.12747214326260692  0.0672153182259143  1.0000
  H   H9        1.0  0.0176611672765592  0.1265201728205896  0.578787724287328  1.0000
  H   H10       1.0  0.9823388325196705  0.8734798273177135  0.4212122758905278  1.0000
  H   H11       1.0  0.11922660298408642  0.0037748792757231102  0.5833617961853248  1.0000
  H   H12       1.0  0.8807733969913022  0.9962251210711917  0.4166382034279202  1.0000
  H   H13       1.0  0.05407676827154497  0.046950464298945865  0.7091414768673004  1.0000
  H   H14       1.0  0.9459232319123981  0.9530495353226124  0.2908585227418389  1.0000
  H   H15       1.0  0.9842735669435662  0.9344066459621146  0.7113530681328621  1.0000
  H   H16       1.0  0.015726433031822213  0.0655933543848003  0.2886469314803829  1.0000
  H   H17       1.0  0.8448355826972662  0.1185262435504858  0.7943660353529853  1.0000
  H   H18       1.0  0.15516441709896367  0.8814737565878173  0.20563396482487042  1.0000
  H   H19       1.0  0.8343852273705946  0.985677831051573  0.8217783359887293  1.0000
  H   H20       1.0  0.16561477263418986  0.014322168361373483  0.17822166418502075  1.0000
  H   H21       1.0  0.5901648927102466  0.07266996678471485  0.8694997498373703  1.0000
  H   H22       1.0  0.40983510726514194  0.9273300335622  0.13050024977587457  1.0000
  H   H23       1.0  0.5687485925648065  0.017489646889084273  0.7981783244878015  1.0000
  H   H24       1.0  0.43125140743997786  0.9825103525238624  0.20182167568594858  1.0000
  H   H25       1.0  0.38074054008291786  0.2743358879637077  0.7391422585904902  1.0000
  H   H26       1.0  0.6192594609924132  0.7256641123857679  0.26085774102310905  1.0000
  H   H27       1.0  0.34519509904409834  0.17960710159320636  0.8257254730720252  1.0000
  H   H28       1.0  0.6548049009312901  0.8203928987537082  0.1742745265412199  1.0000
  H   H29       1.0  0.22298003672184089  0.15769793296464366  0.7276894256302163  1.0000
  H   H30       1.0  0.777019963074389  0.8423020671736594  0.2723105745476396  1.0000
  H   H31       1.0  0.3661385287359064  0.05177518000783998  0.7516103026992171  1.0000
  H   H32       1.0  0.6338614710603235  0.9482248201304632  0.24838969747863876  1.0000
  H   H33       1.0  0.40186026763591576  0.1624746457059906  0.5431711814845027  1.0000
  H   H34       1.0  0.5981397323688684  0.8375253537069562  0.4568288186892474  1.0000
  H   H35       1.0  0.2497135173693665  0.11572091490404811  0.612657378863653  1.0000
  H   H36       1.0  0.7502864824268635  0.884279085234255  0.3873426213142029  1.0000
  H   H37       1.0  0.43492783573098265  0.9565516420106075  0.6615296543614846  1.0000
  H   H38       1.0  0.5650721642444059  0.04344835833630728  0.3384703452517604  1.0000
  H   H39       1.0  0.40087909500434193  0.9761481590947311  0.5676938657948437  1.0000
  H   H40       1.0  0.5991209050004425  0.023851840318215797  0.43230613437890647  1.0000
  H   H41       1.0  0.5420541342141337  0.8242361464655106  0.594468731301534  1.0000
  H   H42       1.0  0.457945865761255  0.17576385388140403  0.405531268311711  1.0000
  H   H43       1.0  0.0011528355238283193  0.6853766377222213  0.6081578004066686  1.0000
  H   H44       1.0  0.9988471644809561  0.31462336169072547  0.3918421997670815  1.0000
  H   H45       1.0  0.08245763931579299  0.8531249001826771  0.5917790369800996  1.0000
  H   H46       1.0  0.9175423606889914  0.14687509923026984  0.40822096319365053  1.0000
  H   H47       1.0  0.9173044064450498  0.5242001868707974  0.9284132653836125  1.0000
  H   H48       1.0  0.08269559335117992  0.4757998132675058  0.07158673479424342  1.0000
  H   H49       1.0  0.8110746314493468  0.44125301806419814  0.909953513242519  1.0000
  H   H50       1.0  0.18892536855543757  0.5587469813487488  0.09004648693123096  1.0000
  H   H51       1.0  0.8526770938584819  0.5731720418320562  0.7952182634328782  1.0000
  H   H52       1.0  0.1473229063254611  0.4268279577895022  0.20478173617626103  1.0000
  H   H53       1.0  0.6579978252085681  0.5935169575836107  0.8351902213631746  1.0000
  H   H54       1.0  0.3420021745876619  0.4064830425546927  0.16480977881468123  1.0000
  H   H55       1.0  0.7695235855908031  0.8401650755373719  0.7877111829415907  1.0000
  H   H56       1.0  0.23047641438458544  0.15983492480954284  0.21228881667165425  1.0000
  H   H57       1.0  0.7311167551807596  0.7577666020879439  0.7393319352814928  1.0000
  H   H58       1.0  0.26888324461547036  0.24223339805035918  0.2606680648963631  1.0000
  H   H59       1.0  0.4908290536994659  0.8438671199616598  0.7769051280211955  1.0000
  H   H60       1.0  0.5091709464844772  0.15613287965989855  0.22309487158794375  1.0000
  H   H61       1.0  0.4951384418165134  0.7224183816998676  0.8422547637202439  1.0000
  H   H62       1.0  0.5048615590796589  0.27758161844099655  0.1577452364579661  1.0000
  H   H63       1.0  0.30442194136314943  0.905281256816046  0.8772428695628277  1.0000
  H   H64       1.0  0.6955780584330803  0.09471874332225706  0.12275713061502819  1.0000
  H   H65       1.0  0.32538382483891787  0.7779494708054486  0.9337073081527919  1.0000
  H   H66       1.0  0.6746161751364705  0.22205052954146612  0.06629269146045305  1.0000
  H   H67       1.0  0.42352214570691976  0.9538216374195576  0.9713644702705003  1.0000
  H   H68       1.0  0.5764778540893101  0.04617836271874572  0.028635529907355517  1.0000
  H   H69       1.0  0.23831849949609127  0.9162640394352717  0.004160953587435826  1.0000
  H   H70       1.0  0.7616815003001385  0.08373596070303155  0.9958390465904199  1.0000
  H   H71       1.0  0.23468905301690793  0.7760166308994475  0.13287137328567192  1.0000
  H   H72       1.0  0.7653109482669777  0.2239833687246718  0.8671286263238215  1.0000
  H   H73       1.0  0.259176647850686  0.7237599422229681  0.05487467582272801  1.0000
  H   H74       1.0  0.7408233519455438  0.276240057915335  0.945125324355128  1.0000
  H   H75       1.0  0.48903103897478606  0.6740764663800816  0.16370531533362734  1.0000
  H   H76       1.0  0.5109689610299982  0.3259235330328652  0.8362946848401228  1.0000
  H   H77       1.0  0.33687382791382997  0.6027851417954594  0.17651003845840324  1.0000
  H   H78       1.0  0.6631261718823999  0.3972148583428437  0.8234899617194527  1.0000
  H   H79       1.0  0.5369240334190878  0.5008637057410114  0.22407830787028055  1.0000
  H   H80       1.0  0.4630759665856966  0.4991362936719354  0.7759216923034695  1.0000
  H   H81       1.0  0.9084796334011952  0.28857407494683823  0.15896330247852394  1.0000
  H   H82       1.0  0.0915203663950347  0.711425925191465  0.8410366976993319  1.0000
  H   H83       1.0  0.8893172394050488  0.3713029138195681  0.02362413233167029  1.0000
  H   H84       1.0  0.11068276039118101  0.628697086318735  0.9763758678461855  1.0000
  H   H85       1.0  0.6932733484291096  0.49074565972469975  0.4502718716360609  1.0000
  H   H86       1.0  0.3067266515756748  0.5092543396882471  0.5497281285376892  1.0000
  H   H87       1.0  0.6970096996065316  0.31865786421551134  0.6836111713236642  1.0000
  H   H88       1.0  0.30299030167735397  0.6813421354086079  0.31638882828582926  1.0000
  H   H89       1.0  0.7106335745081263  0.1649225837688504  0.5247880838554366  1.0000
  H   H90       1.0  0.2893664252881037  0.8350774163694529  0.47521191632241916  1.0000
  H   H91       1.0  0.7076658986521923  0.17446000595688316  0.6461280836172592  1.0000
  H   H92       1.0  0.29233410135259186  0.8255399934560637  0.353871916556491  1.0000
  C   C1        1.0  0.7945260920069295  0.8455737361608385  0.9779496095064373  1.0000
  C   C2        1.0  0.2054739077893003  0.15442626397746476  0.022050390671418476  1.0000
  C   C3        1.0  0.7925381827243139  0.7338179138936798  0.009601158686973438  1.0000
  C   C4        1.0  0.20746181725107446  0.2661820864532351  0.9903988409262716  1.0000
  C   C5        1.0  0.8578933155791622  0.9335530261183345  0.5829210625407486  1.0000
  C   C6        1.0  0.14210668421706768  0.06644697401996857  0.4170789376371073  1.0000
  C   C7        1.0  0.009941780925434135  0.04540090635521772  0.6017949770256612  1.0000
  C   C8        1.0  0.9900582190793502  0.9545990930577292  0.39820502314808887  1.0000
  C   C9        1.0  0.9731824277294082  0.017162881411165662  0.6872560082522444  1.0000
  C   C10       1.0  0.02681757227537605  0.9828371180017812  0.3127439919215057  1.0000
  C   C11       1.0  0.7890630854948231  0.05917725774315786  0.7867789506790395  1.0000
  C   C12       1.0  0.21093691560990396  0.9408227416723498  0.21322104949506487  1.0000
  C   C13       1.0  0.6194966816979625  0.07676525426090951  0.8087040789025678  1.0000
  C   C14       1.0  0.3805033180982675  0.9232347458773936  0.19129592127528802  1.0000
  C   C15       1.0  0.4052779923147331  0.19345979603666685  0.7669872874601227  1.0000
  C   C16       1.0  0.5947220074814966  0.8065402041016364  0.23301271271773322  1.0000
  C   C17       1.0  0.34649914176278757  0.13405929337392078  0.7254101626822429  1.0000
  C   C18       1.0  0.6535008582419969  0.865940706039026  0.2745898374915071  1.0000
  C   C19       1.0  0.37374151308372344  0.11429337495030521  0.6007434905308168  1.0000
  C   C20       1.0  0.6262584868916652  0.8857066253966096  0.39925650908242816  1.0000
  C   C21       1.0  0.44921873423077435  0.007508974547448116  0.6039220046628336  1.0000
  C   C22       1.0  0.5507812657740099  0.9924910248654988  0.3960779955109165  1.0000
  C   C23       1.0  0.7040969603055788  0.925772583741555  0.5848850022607079  1.0000
  C   C24       1.0  0.29590303949065117  0.07422741639674824  0.4151149979171479  1.0000
  C   C25       1.0  0.6595851187096579  0.8324599224673943  0.593138995871791  1.0000
  C   C26       1.0  0.34041488236567324  0.16754007788208133  0.40686100374180817  1.0000
  C   C27       1.0  0.7695074251272558  0.7477183196602792  0.6000258743933917  1.0000
  C   C28       1.0  0.2304925746689738  0.25228168047802396  0.39997412578446406  1.0000
  C   C29       1.0  0.9202676965654629  0.753720199155974  0.6006061702579724  1.0000
  C   C30       1.0  0.07973230340992575  0.24627980119094078  0.3993938293552726  1.0000
  C   C31       1.0  0.9644198701877182  0.8474383216996413  0.5921399953356016  1.0000
  C   C32       1.0  0.03558012981706618  0.15256167771330548  0.4078600048381486  1.0000
  C   C33       1.0  0.7035491787556313  0.48387125725783875  0.04658518727287881  1.0000
  C   C34       1.0  0.296450821249153  0.5161287421551082  0.9534148129008712  1.0000
  C   C35       1.0  0.8069997408032341  0.5179100073878332  0.915448082625549  1.0000
  C   C36       1.0  0.19300025920155028  0.48208999202511355  0.08455191754820117  1.0000
  C   C37       1.0  0.7745973931635747  0.5944012653029963  0.8430563372962371  1.0000
  C   C38       1.0  0.2254026066326549  0.4055987348353067  0.15694366288161882  1.0000
  C   C39       1.0  0.7161175492348434  0.7726022393230152  0.7949972442730732  1.0000
  C   C40       1.0  0.2838824507699409  0.22739776008993165  0.20500275590067693  1.0000
  C   C41       1.0  0.5480759893544637  0.7927190458572076  0.8235813341694721  1.0000
  C   C42       1.0  0.45192401044176606  0.20728095428109564  0.17641866600838366  1.0000
  C   C43       1.0  0.3721678712906007  0.8502740265830655  0.9181619355083956  1.0000
  C   C44       1.0  0.6278321287141837  0.14972597282988115  0.08183806466535441  1.0000
  C   C45       1.0  0.35860515960720246  0.8894419167448305  0.9866814361978369  1.0000
  C   C46       1.0  0.6413948401890273  0.11055808339347267  0.013318563980018886  1.0000
  C   C47       1.0  0.3202797472808648  0.7448443203600894  0.09189437010232808  1.0000
  C   C48       1.0  0.679720252515365  0.2551556797782137  0.9081056300755279  1.0000
  C   C49       1.0  0.41262155491088626  0.6525182601769095  0.1340873997779671  1.0000
  C   C50       1.0  0.5873784450645023  0.34748174017000527  0.8659125998352779  1.0000
  C   C51       1.0  0.6020003302342553  0.5208046832181081  0.10370664670586227  1.0000
  C   C52       1.0  0.39799966974113343  0.47919531712880664  0.8962933529073828  1.0000
  C   C53       1.0  0.612908651940738  0.4742649622457172  0.17909305763039388  1.0000
  C   C54       1.0  0.3870913478554919  0.5257350378925859  0.820906942547462  1.0000
  C   C55       1.0  0.7230029717931027  0.3906156738758374  0.19792638810981078  1.0000
  C   C56       1.0  0.276997028003127  0.6093843262624657  0.8020736120680451  1.0000
  C   C57       1.0  0.8220162015675557  0.3524118632438357  0.1433063326846025  1.0000
  C   C58       1.0  0.17798379822867397  0.6475881368944675  0.8566936674932535  1.0000
  C   C59       1.0  0.8114182356274917  0.3999195525549566  0.06712860391120443  1.0000
  C   C60       1.0  0.18858176434789692  0.6000804477919581  0.9328713957020406  1.0000
  C   C61       1.0  0.7459549726411904  0.392140507573334  0.3278855821032754  1.0000
  C   C62       1.0  0.2540450271550393  0.6078594925649692  0.6721144180745805  1.0000
  C   C63       1.0  0.7074545959154729  0.3235919617948938  0.3979412438016631  1.0000
  C   C64       1.0  0.29254540426847025  0.6764080378266645  0.6020587558074761  1.0000
  C   C65       1.0  0.70377656093157  0.32868584243350724  0.4747680699653669  1.0000
  C   C66       1.0  0.2962234388646598  0.6713141577047959  0.5252319302124889  1.0000
  C   C67       1.0  0.6969270911321577  0.4193860249903297  0.49406068390764174  1.0000
  C   C68       1.0  0.30307290866407227  0.5806139751479735  0.505939316270214  1.0000
  C   C69       1.0  0.6940823751022045  0.4191260239424743  0.569063410954402  1.0000
  C   C70       1.0  0.30591762469402545  0.5808739761958289  0.43093658922345385  1.0000
  C   C71       1.0  0.6958615715427658  0.3267432255795197  0.6244342345552949  1.0000
  C   C72       1.0  0.3041384293534067  0.6732567745613445  0.3755657656229151  1.0000
  C   C73       1.0  0.7059345696054262  0.23910137139087018  0.532909405701176  1.0000
  C   C74       1.0  0.29406543039935806  0.7608986280220765  0.46709059447257417  1.0000
  C   C75       1.0  0.6922019845707791  0.5095732773716358  0.5927354936148711  1.0000
  C   C76       1.0  0.30779801522545086  0.49042672276666727  0.40726450656298474  1.0000
  C   C77       1.0  0.7577589866161879  0.5977615037533597  0.5553786053306573  1.0000
  C   C78       1.0  0.24224101338859647  0.40223849565958725  0.44462139484309277  1.0000
  N   N1        1.0  0.726662173619103  0.34563357663663247  0.27667919473329927  1.0000
  N   N2        1.0  0.27333782617712676  0.6543664235016707  0.7233208054445566  1.0000
  N   N3        1.0  0.6720028971081528  0.23966955934478018  0.3846333372401473  1.0000
  N   N4        1.0  0.32799710286723566  0.7603304410021346  0.6153666623730977  1.0000
  N   N5        1.0  0.6815084183744687  0.25281660358757424  0.31192901219278285  1.0000
  N   N6        1.0  0.31849158142176115  0.7471833965507289  0.6880709879850729  1.0000
  N   N7        1.0  0.7019451112526112  0.24187505030176018  0.6040963769456817  1.0000
  N   N8        1.0  0.2980548887521732  0.7581249491111864  0.3959036232280684  1.0000
  N   N9        1.0  0.7257725607675354  0.652025606938746  0.6073121351867932  1.0000
  N   N10       1.0  0.27422743923724896  0.34797439247420064  0.39268786498695685  1.0000
  N   N11       1.0  0.6455537496332914  0.6013292231313987  0.6732042919422668  1.0000
  N   N12       1.0  0.3544462505506516  0.39867077649015953  0.32679570766687244  1.0000
  N   N13       1.0  0.6265938063695798  0.5156139547693822  0.6640561219496578  1.0000
  N   N14       1.0  0.3734061938143632  0.4843860448521762  0.33594387765948147  1.0000
  O   O1        1.0  0.8902227967912153  0.029554101240243633  0.5689108964172541  1.0000
  O   O2        1.0  0.10977720321356904  0.9704458981727032  0.43108910375649595  1.0000
  O   O3        1.0  0.8215377522830402  0.05986822610870411  0.708531589880398  1.0000
  O   O4        1.0  0.17846224769234834  0.9401317742382107  0.29146840973284704  1.0000
  O   O5        1.0  0.566109147437474  0.1745592397156024  0.7648485213125268  1.0000
  O   O6        1.0  0.43389085256731036  0.8254407596973444  0.23515147886122328  1.0000
  O   O7        1.0  0.4225365864987251  0.1588805820967261  0.6491141787627722  1.0000
  O   O8        1.0  0.5774634132975047  0.8411194180415771  0.35088582141508357  1.0000
  O   O9        1.0  0.6081457612727995  0.013944259308198224  0.5770581390927619  1.0000
  O   O10       1.0  0.3918542385234303  0.986055740830105  0.42294186108509396  1.0000
  O   O11       1.0  0.6879631709356312  0.5367336488698794  0.9747382055215605  1.0000
  O   O12       1.0  0.3120368290397572  0.46326635147703527  0.02526179409168447  1.0000
  O   O13       1.0  0.7952384496837462  0.6921942450610972  0.8458727951220608  1.0000
  O   O14       1.0  0.20476155011248376  0.30780575507720603  0.154127205055795  1.0000
  O   O15       1.0  0.527171348476297  0.8376826477587489  0.8846328832207082  1.0000
  O   O16       1.0  0.4728286513199328  0.16231735237955427  0.11536711695714758  1.0000
  O   O17       1.0  0.4200057255698133  0.8172677354605875  0.048473016825061166  1.0000
  O   O18       1.0  0.579994274405575  0.18273226488632727  0.9515269827881837  1.0000
  O   O19       1.0  0.499818197855715  0.6024170564819955  0.07925630792153857  1.0000
  O   O20       1.0  0.5001818021196734  0.3975829438649192  0.9207436916917066  1.0000
  Cl  Cl1       1.0  0.9822543492277663  0.8783811504361309  0.9373165797819372  1.0000
  Cl  Cl2       1.0  0.01774565077701801  0.12161884897681587  0.06268342039181288  1.0000
  Cl  Cl3       1.0  0.8856990481927899  0.6840191384005295  0.09117357981202868  1.0000
  Cl  Cl4       1.0  0.11430095199115302  0.31598086122102886  0.9088264197971105  1.0000
  Cl  Cl5       1.0  0.01766054041987819  0.6989314061799159  0.28283621953556826  1.0000
  Cl  Cl6       1.0  0.982339459584906  0.301068593233031  0.7171637806381818  1.0000
  I   I1        1.0  0.8527741825020672  0.5229654579347953  0.29800060280827506  1.0000
  I   I2        1.0  0.14722581747332128  0.47703454241211923  0.70199939680497  1.0000
  I   I3        1.0  0.8788234352100261  0.646156079011505  0.44613536955589783  1.0000
  I   I4        1.0  0.12117656458620364  0.3538439211267983  0.553864630621958  1.0000
