data_image0
_chemical_formula_structural       C268I8
_chemical_formula_sum              "C268 I8"
_cell_length_a       20.67974750803869
_cell_length_b       17.11691694191024
_cell_length_c       9.902164979574167
_cell_angle_alpha    90.0
_cell_angle_beta     106.23804705801759
_cell_angle_gamma    90.0

_space_group_name_H-M_alt    "P 1"
_space_group_IT_number       1

loop_
  _space_group_symop_operation_xyz
  'x, y, z'

loop_
  _atom_site_type_symbol
  _atom_site_label
  _atom_site_symmetry_multiplicity
  _atom_site_fract_x
  _atom_site_fract_y
  _atom_site_fract_z
  _atom_site_occupancy
  C   C1        1.0  0.26255688383894193  0.1277399293003747  0.29525180837670095  1.0000
  C   C2        1.0  0.76255688363497  0.627739929244575  0.29525180772919324  1.0000
  C   C3        1.0  0.7374431160380717  0.1277399293003747  0.20474819158323973  1.0000
  C   C4        1.0  0.23744311624204356  0.627739929244575  0.20474819223074747  1.0000
  C   C5        1.0  0.7374431161835102  0.8722600705880258  0.7047481917863598  1.0000
  C   C6        1.0  0.2374431162479631  0.37226007064382555  0.7047481913820316  1.0000
  C   C7        1.0  0.2625568839843804  0.8722600705880258  0.795251808579821  1.0000
  C   C8        1.0  0.7625568837804084  0.37226007064382555  0.7952518079323133  1.0000
  C   C9        1.0  0.33026498957586553  0.12308442210416423  0.2799510798182492  1.0000
  C   C10       1.0  0.8302649895114126  0.6230844220483645  0.27995108022257753  1.0000
  C   C11       1.0  0.6697350107850949  0.12308442210416423  0.22004892014455704  1.0000
  C   C12       1.0  0.16973501036560104  0.6230844220483645  0.22004891973736318  1.0000
  C   C13       1.0  0.6697350104465866  0.8769155777842362  0.7200489203448116  1.0000
  C   C14       1.0  0.1697350105110395  0.376915577840036  0.7200489199404835  1.0000
  C   C15       1.0  0.3302649892373572  0.8769155777842362  0.7799510800185038  1.0000
  C   C16       1.0  0.8302649896568509  0.376915577840036  0.7799510804256977  1.0000
  C   C17       1.0  0.3640091384053445  0.19699378991224425  0.3273296798648055  1.0000
  C   C18       1.0  0.8640091382013726  0.6969937904406619  0.3273296792172977  1.0000
  C   C19       1.0  0.6359908614716692  0.19699378991224425  0.17267032009513517  1.0000
  C   C20       1.0  0.13599086167564103  0.6969937904406619  0.17267032074264294  1.0000
  C   C21       1.0  0.6359908616171076  0.8030062099761562  0.6726703202982554  1.0000
  C   C22       1.0  0.13599086182107947  0.303006210031956  0.6726703209457632  1.0000
  C   C23       1.0  0.36400913841126403  0.8030062099761562  0.8273296790160897  1.0000
  C   C24       1.0  0.8640091383468111  0.303006210031956  0.8273296794204179  1.0000
  C   C25       1.0  0.31692366635127683  0.24699751388337204  0.37165307734021397  1.0000
  C   C26       1.0  0.8169236661473048  0.7469975138275722  0.37165307669270614  1.0000
  C   C27       1.0  0.6830763335257368  0.24699751388337204  0.12834692261972674  1.0000
  C   C28       1.0  0.1830763337297087  0.7469975138275722  0.12834692326723451  1.0000
  C   C29       1.0  0.6830763336711753  0.7530024860050285  0.628346922822847  1.0000
  C   C30       1.0  0.18307633387514713  0.25300248606082826  0.6283469234703546  1.0000
  C   C31       1.0  0.31692366635719627  0.7530024860050285  0.8716530764914979  1.0000
  C   C32       1.0  0.8169236662927434  0.25300248606082826  0.8716530768958263  1.0000
  C   C33       1.0  0.2543249288997963  0.20414654705977858  0.35156862443720827  1.0000
  C   C34       1.0  0.7543249288353433  0.7041465470039788  0.35156862484153656  1.0000
  C   C35       1.0  0.7456750709772173  0.20414654705977858  0.14843137552273242  1.0000
  C   C36       1.0  0.24567507104167027  0.7041465470039788  0.14843137511840412  1.0000
  C   C37       1.0  0.7456750711226557  0.795853452828622  0.6484313757258525  1.0000
  C   C38       1.0  0.24567507118710874  0.29585345288442166  0.6484313753215244  1.0000
  C   C39       1.0  0.2543249290452348  0.795853452828622  0.8515686246403286  1.0000
  C   C40       1.0  0.7543249288412629  0.29585345288442166  0.8515686239928206  1.0000
  C   C41       1.0  0.20891619519843818  0.09319431036638404  0.19467331207581945  1.0000
  C   C42       1.0  0.7089161949944663  0.5931943103105842  0.1946733114283117  1.0000
  C   C43       1.0  0.7910838051625222  0.09319431036638404  0.3053266878869868  1.0000
  C   C44       1.0  0.2910838048825473  0.5931943103105842  0.305326688531629  1.0000
  C   C45       1.0  0.7910838048240139  0.9068056901062338  0.8053266880872414  1.0000
  C   C46       1.0  0.29108380488846686  0.4068056895778162  0.8053266876829132  1.0000
  C   C47       1.0  0.20891619485992985  0.9068056901062338  0.6946733122760741  1.0000
  C   C48       1.0  0.7089161951399048  0.4068056895778162  0.6946733116314319  1.0000
  C   C49       1.0  0.144868362944125  0.13343419131793186  0.14696981953973964  1.0000
  C   C50       1.0  0.6448683632240999  0.6334341912621322  0.14696981889509741  1.0000
  C   C51       1.0  0.8551316369328885  0.13343419131793186  0.353030180420201  1.0000
  C   C52       1.0  0.3551316371368605  0.6334341912621322  0.35303018106770884  1.0000
  C   C53       1.0  0.8551316370783271  0.8665658085704686  0.8530301806233214  1.0000
  C   C54       1.0  0.35513163665883324  0.36656580862626836  0.8530301802161274  1.0000
  C   C55       1.0  0.14486836308956347  0.8665658085704686  0.6469698197428598  1.0000
  C   C56       1.0  0.6448683628855916  0.36656580862626836  0.646969819095352  1.0000
  C   C57       1.0  0.1169701734397047  0.11769598969469397  0.9976695205352359  1.0000
  C   C58       1.0  0.6169701738591986  0.6176959896388943  0.9976695209424299  1.0000
  C   C59       1.0  0.88302982610472  0.11769598969469397  0.5023304787762434  1.0000
  C   C60       1.0  0.38302982630869203  0.6176959896388943  0.5023304794237513  1.0000
  C   C61       1.0  0.8830298265827473  0.8823040101937065  0.0023304796278248666  1.0000
  C   C62       1.0  0.38302982616325354  0.3823040102495063  0.0023304792206310194  1.0000
  C   C63       1.0  0.11697017391773197  0.8823040101937065  0.4976695213868174  1.0000
  C   C64       1.0  0.6169701737137601  0.3823040102495063  0.49766952073930965  1.0000
  C   C65       1.0  0.1640624385700424  0.06766939828772314  0.9533204829072088  1.0000
  C   C66       1.0  0.6640624385055894  0.5676693982319234  0.9533204833115371  1.0000
  C   C67       1.0  0.8359375615978482  0.06766939828772314  0.5466795174589723  1.0000
  C   C68       1.0  0.3359375616623011  0.5676693982319234  0.5466795170546439  1.0000
  C   C69       1.0  0.8359375614524097  0.9323306016006773  0.04667951725585201  1.0000
  C   C70       1.0  0.3359375615168626  0.4323306016564771  0.04667951685152374  1.0000
  C   C71       1.0  0.16406243842460394  0.9323306016006773  0.4533204827040887  1.0000
  C   C72       1.0  0.664062438360151  0.4323306016564771  0.45332048310841694  1.0000
  C   C73       1.0  0.220897749468187  0.05254376258599926  0.07515676737140206  1.0000
  C   C74       1.0  0.7208977498876808  0.5525437625301994  0.07515676777859591  1.0000
  C   C75       1.0  0.7791022504088266  0.05254376258599926  0.42484323258853857  1.0000
  C   C76       1.0  0.2791022504732796  0.5525437625301994  0.42484323218421033  1.0000
  C   C77       1.0  0.7791022504147461  0.9474562378866185  0.9248432317398226  1.0000
  C   C78       1.0  0.2791022501347712  0.447456237358201  0.9248432323844649  1.0000
  C   C79       1.0  0.2208977496136255  0.9474562378866185  0.5751567675745223  1.0000
  C   C80       1.0  0.7208977495491725  0.447456237358201  0.5751567679788505  1.0000
  C   C81       1.0  0.3419413875892001  0.08397699275390559  0.16496189356101496  1.0000
  C   C82       1.0  0.8419413875247471  0.5839769926981059  0.1649618939653432  1.0000
  C   C83       1.0  0.6580586122878135  0.08397699275390559  0.33503810639892573  1.0000
  C   C84       1.0  0.15805861235226643  0.5839769926981059  0.33503810599459743  1.0000
  C   C85       1.0  0.6580586122937331  0.9160230071344949  0.83503810555021  1.0000
  C   C86       1.0  0.15805861249770492  0.4160230071902946  0.8350381061977176  1.0000
  C   C87       1.0  0.34194138773463856  0.9160230071344949  0.6649618937641352  1.0000
  C   C88       1.0  0.8419413876701856  0.4160230071902946  0.6649618941684634  1.0000
  C   C89       1.0  0.19262357142677716  0.24310646678499384  0.30585038845301565  1.0000
  C   C90       1.0  0.6926235713623242  0.7431064667291941  0.30585038885734395  1.0000
  C   C91       1.0  0.8073764284502365  0.24310646678499384  0.194149611506925  1.0000
  C   C92       1.0  0.3073764285146894  0.7431064667291941  0.19414961110259674  1.0000
  C   C93       1.0  0.8073764285956749  0.7568935331034066  0.6941496117100451  1.0000
  C   C94       1.0  0.3073764286601279  0.2568935331592064  0.694149611305717  1.0000
  C   C95       1.0  0.19262357157221563  0.7568935331034066  0.8058503886561359  1.0000
  C   C96       1.0  0.6926235713682437  0.2568935331592064  0.8058503880086281  1.0000
  C   C97       1.0  0.13717136170285885  0.2072011105759444  0.20102744445730825  1.0000
  C   C98       1.0  0.6371713619828338  0.7072011105201447  0.20102744381266605  1.0000
  C   C99       1.0  0.8628286381741548  0.2072011105759444  0.29897255550263246  1.0000
  C   C100      1.0  0.3628286383781267  0.7072011105201447  0.29897255615014023  1.0000
  C   C101      1.0  0.8628286383195932  0.7927988893124561  0.7989725557057527  1.0000
  C   C102      1.0  0.3628286379000994  0.2927988893682558  0.7989725552985587  1.0000
  C   C103      1.0  0.13717136184829729  0.7927988893124561  0.7010274446604283  1.0000
  C   C104      1.0  0.6371713616443254  0.2927988893682558  0.7010274440129206  1.0000
  C   C105      1.0  0.2861578645567907  0.04804115558839826  0.0605623735256936  1.0000
  C   C106      1.0  0.7861578649762846  0.5480411555325985  0.060562373932887464  1.0000
  C   C107      1.0  0.7138421353202229  0.04804115558839826  0.439437626434247  1.0000
  C   C108      1.0  0.2138421353846759  0.5480411555325985  0.4394376260299188  1.0000
  C   C109      1.0  0.7138421354656614  0.9519588443000022  0.9394376266373673  1.0000
  C   C110      1.0  0.2138421350461676  0.45195884435580197  0.9394376262301735  1.0000
  C   C111      1.0  0.28615786470222915  0.9519588443000022  0.5605623737288138  1.0000
  C   C112      1.0  0.7861578646377761  0.45195884435580197  0.560562374133142  1.0000
  C   C113      1.0  0.387572859254125  0.11729107623840265  0.09229158832785657  1.0000
  C   C114      1.0  0.887572859189672  0.6172910761826028  0.09229158873218483  1.0000
  C   C115      1.0  0.6124271406228886  0.11729107623840265  0.4077084116320841  1.0000
  C   C116      1.0  0.11242714068734151  0.6172910761826028  0.40770841122775586  1.0000
  C   C117      1.0  0.612427140628808  0.8827089236499979  0.9077084107833682  1.0000
  C   C118      1.0  0.11242714083277998  0.3827089237057976  0.907708411430876  1.0000
  C   C119      1.0  0.38757285939956354  0.8827089236499979  0.5922915885309767  1.0000
  C   C120      1.0  0.8875728593351105  0.3827089237057976  0.592291588935305  1.0000
  C   C121      1.0  0.4197876042629524  0.18838094681086576  0.1375804806433645  1.0000
  C   C122      1.0  0.9197876045429275  0.688380946755066  0.1375804799987223  1.0000
  C   C123      1.0  0.5802123956140611  0.18838094681086576  0.3624195193165762  1.0000
  C   C124      1.0  0.08021239581803306  0.688380946755066  0.36241951996408395  1.0000
  C   C125      1.0  0.5802123957594997  0.8116190530775347  0.8624195195196964  1.0000
  C   C126      1.0  0.08021239547952475  0.3116190531333345  0.8624195201643386  1.0000
  C   C127      1.0  0.41978760426887196  0.8116190530775347  0.6375804797946486  1.0000
  C   C128      1.0  0.919787604204419  0.3116190531333345  0.6375804801989768  1.0000
  C   C129      1.0  0.4078385181147542  0.2290583335366961  0.2571455777188759  1.0000
  C   C130      1.0  0.9078385179107822  0.7290583334808964  0.25714557707136815  1.0000
  C   C131      1.0  0.5921614817622595  0.2290583335366961  0.24285442224106477  1.0000
  C   C132      1.0  0.09216148196623133  0.7290583334808964  0.24285442288857256  1.0000
  C   C133      1.0  0.5921614819076979  0.7709416663517044  0.742854422444185  1.0000
  C   C134      1.0  0.09216148197215084  0.27094166640750417  0.7428544220398566  1.0000
  C   C135      1.0  0.40783851826019263  0.7709416663517044  0.7571455779219961  1.0000
  C   C136      1.0  0.9078385180562208  0.27094166640750417  0.7571455772744883  1.0000
  C   C137      1.0  0.31563736225341754  0.3272970640105696  0.3447786436950608  1.0000
  C   C138      1.0  0.8156373620494456  0.8272970639547699  0.344778643047553  1.0000
  C   C139      1.0  0.6843626376235961  0.3272970640105696  0.15522135626487987  1.0000
  C   C140      1.0  0.18436263782756798  0.8272970639547699  0.15522135691238764  1.0000
  C   C141      1.0  0.6843626377690345  0.6727029358778308  0.6552213564680001  1.0000
  C   C142      1.0  0.18436263783348747  0.1727029359336306  0.6552213560636717  1.0000
  C   C143      1.0  0.315637362398856  0.6727029358778308  0.844778643898181  1.0000
  C   C144      1.0  0.8156373621948841  0.1727029359336306  0.8447786432506732  1.0000
  C   C145      1.0  0.25140163283121736  0.36757827366648643  0.2965310237911561  1.0000
  C   C146      1.0  0.7514016327667644  0.8675782736106866  0.2965310241954844  1.0000
  C   C147      1.0  0.7485983670457963  0.36757827366648643  0.2034689761687846  1.0000
  C   C148      1.0  0.24859836711024916  0.8675782736106866  0.2034689757644563  1.0000
  C   C149      1.0  0.7485983671912347  0.6324217262219141  0.7034689763719048  1.0000
  C   C150      1.0  0.24859836725568765  0.13242172627771384  0.7034689759675764  1.0000
  C   C151      1.0  0.25140163297665585  0.6324217262219141  0.7965310239942762  1.0000
  C   C152      1.0  0.751401632912203  0.13242172627771384  0.7965310243986046  1.0000
  C   C153      1.0  0.19110095050722023  0.32657453494520283  0.27795933249199434  1.0000
  C   C154      1.0  0.6911009507871951  0.8265745348894031  0.27795933184735205  1.0000
  C   C155      1.0  0.8088990493697933  0.32657453494520283  0.2220406674679464  1.0000
  C   C156      1.0  0.30889904957376524  0.8265745348894031  0.22204066811545417  1.0000
  C   C157      1.0  0.8088990495152318  0.6734254649431977  0.7220406676710666  1.0000
  C   C158      1.0  0.30889904909573795  0.17342546499899741  0.7220406672638726  1.0000
  C   C159      1.0  0.19110095065265872  0.6734254649431977  0.7779593326951144  1.0000
  C   C160      1.0  0.6911009504486869  0.17342546499899741  0.7779593320476067  1.0000
  C   C161      1.0  0.10102714448572565  0.2682358006165335  0.10838150735710728  1.0000
  C   C162      1.0  0.6010271449052196  0.7682358005607338  0.10838150776430112  1.0000
  C   C163      1.0  0.898972855391288  0.2682358006165335  0.3916184926028334  1.0000
  C   C164      1.0  0.39897285559525986  0.7682358005607338  0.3916184932503412  1.0000
  C   C165      1.0  0.8989728555367263  0.7317641992718669  0.8916184928059536  1.0000
  C   C166      1.0  0.3989728551172325  0.2317641993276667  0.8916184923987597  1.0000
  C   C167      1.0  0.1010271446311641  0.7317641992718669  0.6083815075602274  1.0000
  C   C168      1.0  0.6010271444271922  0.2317641993276667  0.6083815069127197  1.0000
  C   C169      1.0  0.4258042565071621  0.24673426437323584  0.03528327505387746  1.0000
  C   C170      1.0  0.9258042563031902  0.7467342643174361  0.03528327440636969  1.0000
  C   C171      1.0  0.5741957433698516  0.24673426437323584  0.4647167249060632  1.0000
  C   C172      1.0  0.07419574357382346  0.7467342643174361  0.464716725553571  1.0000
  C   C173      1.0  0.57419574351529  0.7532657360993821  0.9647167251091835  1.0000
  C   C174      1.0  0.07419574371926194  0.25326573615518183  0.9647167257566912  1.0000
  C   C175      1.0  0.42580425651308157  0.7532657360993821  0.5352832742051616  1.0000
  C   C176      1.0  0.9258042564486286  0.25326573615518183  0.5352832746094899  1.0000
  C   C177      1.0  0.08227693906630884  0.17651519781592243  0.9083345259908836  1.0000
  C   C178      1.0  0.582276939001856  0.6765151977601226  0.908334526395212  1.0000
  C   C179      1.0  0.9177230611015816  0.17651519781592243  0.5916654743752975  1.0000
  C   C180      1.0  0.4177230611660347  0.6765151977601226  0.5916654739709692  1.0000
  C   C181      1.0  0.9177230609561433  0.8234848026566954  0.09166547417217735  1.0000
  C   C182      1.0  0.4177230610205962  0.32348480212827785  0.09166547376784909  1.0000
  C   C183      1.0  0.08227693892087036  0.8234848026566954  0.40833452578776336  1.0000
  C   C184      1.0  0.5822769388564175  0.32348480212827785  0.4083345261920916  1.0000
  C   C185      1.0  0.17487084224924143  0.07848633983323355  0.821365624380247  1.0000
  C   C186      1.0  0.6748708420452696  0.5784863397774338  0.8213656237327392  1.0000
  C   C187      1.0  0.8251291579186492  0.07848633983323355  0.678634375985934  1.0000
  C   C188      1.0  0.32512915812262105  0.5784863397774338  0.6786343766334418  1.0000
  C   C189      1.0  0.8251291577732107  0.921513660055167  0.17863437578281383  1.0000
  C   C190      1.0  0.32512915797718256  0.4215136601109667  0.17863437643032162  1.0000
  C   C191      1.0  0.17487084210380296  0.921513660055167  0.32136562417712683  1.0000
  C   C192      1.0  0.6748708418998312  0.4215136601109667  0.3213656235296191  1.0000
  C   C193      1.0  0.25729191049649114  0.42553875062427676  0.19339382587944107  1.0000
  C   C194      1.0  0.7572919102925192  0.925538750568477  0.1933938252319333  1.0000
  C   C195      1.0  0.7427080893805226  0.42553875062427676  0.30660617408049967  1.0000
  C   C196      1.0  0.24270808958449439  0.925538750568477  0.3066061747280074  1.0000
  C   C197      1.0  0.742708089525961  0.5744612492641237  0.8066061742836197  1.0000
  C   C198      1.0  0.24270808972993288  0.07446124931992344  0.8066061749311276  1.0000
  C   C199      1.0  0.2572919105024106  0.5744612492641237  0.6933938250307252  1.0000
  C   C200      1.0  0.7572919104379577  0.07446124931992344  0.6933938254350536  1.0000
  C   C201      1.0  0.2972895323315924  0.05911135477456392  0.9233855529321694  1.0000
  C   C202      1.0  0.7972895327510863  0.5591113553029815  0.9233855533393632  1.0000
  C   C203      1.0  0.7027104672128325  0.05911135477456392  0.5766144463793103  1.0000
  C   C204      1.0  0.2027104674168043  0.5591113553029815  0.5766144470268179  1.0000
  C   C205      1.0  0.7027104675513407  0.9408886451138365  0.07661444617905556  1.0000
  C   C206      1.0  0.20271046727136585  0.44088864516963633  0.07661444682369777  1.0000
  C   C207      1.0  0.29728953280961967  0.9408886451138365  0.42338555378375076  1.0000
  C   C208      1.0  0.7972895326056477  0.44088864516963633  0.42338555313624293  1.0000
  C   C209      1.0  0.36005826926776663  0.10180246687611332  0.9428791288572663  1.0000
  C   C210      1.0  0.8600582692033136  0.6018024668203136  0.9428791292615946  1.0000
  C   C211      1.0  0.639941730760605  0.10180246687611332  0.5571208704570787  1.0000
  C   C212      1.0  0.13994173096457682  0.6018024668203136  0.5571208711045864  1.0000
  C   C213      1.0  0.6399417307546854  0.8981975335965044  0.057120871305794546  1.0000
  C   C214      1.0  0.13994173081913838  0.39819753365230426  0.05712087090146627  1.0000
  C   C215      1.0  0.3600582691223282  0.8981975335965044  0.4428791286541462  1.0000
  C   C216      1.0  0.8600582690578753  0.39819753365230426  0.44287912905847443  1.0000
  C   C217      1.0  0.13428250978794062  0.3420694205545736  0.15581818122513416  1.0000
  C   C218      1.0  0.6342825102074344  0.8420694204987739  0.155818181632328  1.0000
  C   C219      1.0  0.8657174900890731  0.3420694205545736  0.3441818187348065  1.0000
  C   C220      1.0  0.36571749015352595  0.8420694204987739  0.34418181833047823  1.0000
  C   C221      1.0  0.8657174902345114  0.6579305793338269  0.8441818189379268  1.0000
  C   C222      1.0  0.36571748981501756  0.15793057938962662  0.8441818185307328  1.0000
  C   C223      1.0  0.13428250993337906  0.6579305793338269  0.6558181814282543  1.0000
  C   C224      1.0  0.6342825098689261  0.15793057938962662  0.6558181818325826  1.0000
  C   C225      1.0  0.40661285689554527  0.312449431059934  0.22916315119510136  1.0000
  C   C226      1.0  0.9066128568310923  0.8124494310041342  0.22916315159942963  1.0000
  C   C227      1.0  0.5933871429814683  0.312449431059934  0.2708368487648393  1.0000
  C   C228      1.0  0.09338714304592127  0.8124494310041342  0.27083684836051103  1.0000
  C   C229      1.0  0.5933871429873878  0.6875505688284664  0.7708368479161234  1.0000
  C   C230      1.0  0.09338714319135974  0.18755056888426624  0.7708368485636312  1.0000
  C   C231      1.0  0.4066128570409837  0.6875505688284664  0.7291631513982215  1.0000
  C   C232      1.0  0.9066128569765308  0.18755056888426624  0.7291631518025499  1.0000
  C   C233      1.0  0.3612600806378259  0.36065368202406345  0.2719954354933128  1.0000
  C   C234      1.0  0.8612600804338539  0.8606536825524811  0.27199543484580496  1.0000
  C   C235      1.0  0.6387399192391877  0.36065368202406345  0.22800456446662795  1.0000
  C   C236      1.0  0.1387399194431597  0.8606536825524811  0.2280045651141357  1.0000
  C   C237      1.0  0.6387399193846262  0.639346317864337  0.728004564669748  1.0000
  C   C238      1.0  0.13873991944907918  0.1393463179201368  0.7280045642654198  1.0000
  C   C239      1.0  0.3612600807832643  0.639346317864337  0.7719954356964329  1.0000
  C   C240      1.0  0.8612600805792924  0.1393463179201368  0.7719954350489251  1.0000
  C   C241      1.0  0.9999999997609864  0.4812022911575096  0.2499999995742093  1.0000
  C   C242      1.0  0.5000000001804802  0.9812022911017099  0.2499999999814031  1.0000
  C   C243      1.0  0.9999999999064249  0.5187977087308908  0.7499999997773295  1.0000
  C   C244      1.0  0.4999999998419719  0.01879770878669064  0.7500000001816578  1.0000
  C   C245      1.0  0.9999999997609864  0.18841334867399814  0.2499999995742093  1.0000
  C   C246      1.0  0.5000000001804802  0.6884133486181984  0.2499999999814031  1.0000
  C   C247      1.0  0.9999999999064249  0.8115866512144023  0.7499999997773295  1.0000
  C   C248      1.0  0.4999999998419719  0.3115866512702021  0.7500000001816578  1.0000
  C   C249      1.0  0.9750137839067077  0.13471555174483782  0.1520205660969434  1.0000
  C   C250      1.0  0.4750137834872139  0.634715551689038  0.1520205656897495  1.0000
  C   C251      1.0  0.02498621645425267  0.13471555174483782  0.34797943386586283  1.0000
  C   C252      1.0  0.5249862163897997  0.634715551689038  0.3479794342701912  1.0000
  C   C253      1.0  0.024986216115744347  0.8652844481435626  0.8479794340661175  1.0000
  C   C254      1.0  0.5249862165352381  0.36528444819936245  0.8479794344733113  1.0000
  C   C255      1.0  0.9750137834286804  0.8652844481435626  0.6520205652453619  1.0000
  C   C256      1.0  0.4750137836326524  0.36528444819936245  0.6520205658928697  1.0000
  C   C257      1.0  0.9666898759676346  0.059180203621818334  0.11973831654183324  1.0000
  C   C258      1.0  0.4666898761716065  0.5591802035660185  0.11973831718934098  1.0000
  C   C259      1.0  0.033310123909379055  0.059180203621818334  0.38026168341810745  1.0000
  C   C260      1.0  0.533310124189354  0.5591802035660185  0.3802616827734653  1.0000
  C   C261      1.0  0.033310123915298584  0.9408197968507995  0.8802616825693917  1.0000
  C   C262      1.0  0.5333101238508458  0.4408197963223819  0.88026168297372  1.0000
  C   C263      1.0  0.9666898761130731  0.9408197968507995  0.6197383167449534  1.0000
  C   C264      1.0  0.46668987583309807  0.4408197963223819  0.6197383173895955  1.0000
  C   C265      1.0  0.9999999997609864  0.03772346399712909  0.2499999995742093  1.0000
  C   C266      1.0  0.5000000001804802  0.5377234639413293  0.2499999999814031  1.0000
  C   C267      1.0  0.9999999999064249  0.9622765364754887  0.7499999997773295  1.0000
  C   C268      1.0  0.4999999998419719  0.4622765359470712  0.7500000001816578  1.0000
  I   I1        1.0  0.9517800057700528  0.4124889291664722  0.07639370686529985  1.0000
  I   I2        1.0  0.45178000583450584  0.9124889291106724  0.07639370646097159  1.0000
  I   I3        1.0  0.04821999410696078  0.4124889291664722  0.4236062930946408  1.0000
  I   I4        1.0  0.5482199940425079  0.9124889291106724  0.4236062934989691  1.0000
  I   I5        1.0  0.048219994252399236  0.5875110707219283  0.923606293297761  1.0000
  I   I6        1.0  0.5482199941879463  0.08751107077772809  0.9236062937020894  1.0000
  I   I7        1.0  0.9517800057759724  0.5875110707219283  0.576393706016584  1.0000
  I   I8        1.0  0.4517800059799443  0.08751107077772809  0.5763937066640917  1.0000
