data_image0
_chemical_formula_structural       H44C48N8O12
_chemical_formula_sum              "H44 C48 N8 O12"
_cell_length_a       12.404835783179948
_cell_length_b       5.013496687594003
_cell_length_c       16.311593674642012
_cell_angle_alpha    90.0
_cell_angle_beta     90.03332831394103
_cell_angle_gamma    90.0

_space_group_name_H-M_alt    "P 1"
_space_group_IT_number       1

loop_
  _space_group_symop_operation_xyz
  'x, y, z'

loop_
  _atom_site_type_symbol
  _atom_site_label
  _atom_site_symmetry_multiplicity
  _atom_site_fract_x
  _atom_site_fract_y
  _atom_site_fract_z
  _atom_site_occupancy
  H   H1        1.0  0.10513051715467954  0.6211573207390514  0.4503171584507569  1.0000
  H   H2        1.0  0.3948694829233318  0.1211573195017915  0.049682841649424124  1.0000
  H   H3        1.0  0.8948694830013433  0.37884267974085256  0.5496828417496052  1.0000
  H   H4        1.0  0.605130516426578  0.8788426789834967  0.9503171585458132  1.0000
  H   H5        1.0  0.7996220878990286  0.6711517449141448  0.26034599586002066  1.0000
  H   H6        1.0  0.700377911791403  0.17115174367688485  0.23965400455133765  1.0000
  H   H7        1.0  0.20037791145088135  0.3288482555657592  0.7396540043352167  1.0000
  H   H8        1.0  0.2996220883646199  0.8288482548084032  0.7603459956490246  1.0000
  H   H9        1.0  0.980255145883068  0.856802129864668  0.440927566676277  1.0000
  H   H10       1.0  0.5197448546134765  0.356802130622024  0.059072433740206064  1.0000
  H   H11       1.0  0.01974485427295492  0.1431978686206201  0.5590724335240852  1.0000
  H   H12       1.0  0.48025514554254634  0.64319786985788  0.9409275664601562  1.0000
  H   H13       1.0  0.8398939608501051  0.3049625371815572  0.1615882675300182  1.0000
  H   H14       1.0  0.660106039652709  0.8049625364242011  0.33841173227342525  1.0000
  H   H15       1.0  0.16010603931218753  0.6950374632983468  0.8384117320573042  1.0000
  H   H16       1.0  0.3398939605033137  0.19503746206108685  0.6615882679269369  1.0000
  H   H17       1.0  0.15896413864023087  0.9219733228183831  0.23680041262012744  1.0000
  H   H18       1.0  0.34103586143778053  0.421973323575739  0.2631995874800536  1.0000
  H   H19       1.0  0.8410358615220618  0.0780266776615209  0.7631995869671951  1.0000
  H   H20       1.0  0.6589641387182422  0.578026676904165  0.7368004127203085  1.0000
  H   H21       1.0  0.2648552070084511  0.33520574455719926  0.45456819600419157  1.0000
  H   H22       1.0  0.2351447930695603  0.8352057457944592  0.04543180409598951  1.0000
  H   H23       1.0  0.7351447931475715  0.6647942539280888  0.5454318041961707  1.0000
  H   H24       1.0  0.7648552062803495  0.1647942546854448  0.9545681960992479  1.0000
  H   H25       1.0  0.29237226044494213  0.9813686108888544  0.349509326310936  1.0000
  H   H26       1.0  0.20762773963306927  0.4813686116462104  0.15049067378924505  1.0000
  H   H27       1.0  0.7076277397110806  0.01863138759643363  0.6504906738894262  1.0000
  H   H28       1.0  0.7923722605229536  0.5186313888336935  0.849509326411117  1.0000
  H   H29       1.0  0.7513461168537107  0.23963937843480887  0.43459968562611295  1.0000
  H   H30       1.0  0.7486538828367207  0.7396393776774529  0.0654003147852453  1.0000
  H   H31       1.0  0.24865388249619919  0.760360622045095  0.5654003145691243  1.0000
  H   H32       1.0  0.251346117319302  0.2603606208078352  0.9345996854151168  1.0000
  H   H33       1.0  0.8870078262158305  0.40017124673973026  0.023993882979638597  1.0000
  H   H34       1.0  0.6129921742869836  0.9001712479769901  0.4760061168238049  1.0000
  H   H35       1.0  0.11299217394019224  0.5998287517455578  0.9760061172207236  1.0000
  H   H36       1.0  0.38700782587530896  0.09982875250291381  0.5239938827635178  1.0000
  H   H37       1.0  0.9123069876662545  0.640497515026989  0.948690818424148  1.0000
  H   H38       1.0  0.5876930125677797  0.14049751378972916  0.5513091818763951  1.0000
  H   H39       1.0  0.08769301248976832  0.35950248545291486  0.05130918177621413  1.0000
  H   H40       1.0  0.4123069875882431  0.8595024866901747  0.44869081832396696  1.0000
  H   H41       1.0  0.9984620844801637  0.05201891539000046  0.17028143760478306  1.0000
  H   H42       1.0  0.5015379152102678  0.5520189146326445  0.3297185628065752  1.0000
  H   H43       1.0  0.0015379156758592149  0.9479810850899034  0.8297185625955791  1.0000
  H   H44       1.0  0.498462084139642  0.4479810838526436  0.6702814373886622  1.0000
  C   C1        1.0  0.9424930707627307  0.6027015570743497  0.33345374835069186  1.0000
  C   C2        1.0  0.5575069289339705  0.1027015578317056  0.16654625144762683  1.0000
  C   C3        1.0  0.05750692858717914  0.3972984434055543  0.6665462518445455  1.0000
  C   C4        1.0  0.44249307122832204  0.8972984426481982  0.8334537481396957  1.0000
  C   C5        1.0  0.037651733362030884  0.4408847193356314  0.34021655029703074  1.0000
  C   C6        1.0  0.46234826591613737  0.9408847185782755  0.15978344918498602  1.0000
  C   C7        1.0  0.9623482659941488  0.5591152811442724  0.659783449285167  1.0000
  C   C8        1.0  0.5376517334400422  0.05911528190162846  0.8402165503972118  1.0000
  C   C9        1.0  0.11529098885279622  0.46917892771738184  0.40340436415687175  1.0000
  C   C10       1.0  0.38470901122521517  0.9691789289546416  0.09659563594330929  1.0000
  C   C11       1.0  0.8847090113032265  0.5308210707679063  0.5965956360434903  1.0000
  C   C12       1.0  0.6152909889308077  0.030821071525262225  0.9034043642570527  1.0000
  C   C13       1.0  0.05591735862194179  0.23969600158980217  0.27984408639666797  1.0000
  C   C14       1.0  0.4440826414560696  0.7396960008324461  0.22015591370351312  1.0000
  C   C15       1.0  0.9440826407279681  0.7603039988901018  0.7201559137985694  1.0000
  C   C16       1.0  0.5559173586999532  0.26030399964745776  0.779844086496849  1.0000
  C   C17       1.0  0.8719118197989165  0.5526434607718188  0.2685027422273486  1.0000
  C   C18       1.0  0.6280881807038977  0.0526434595345589  0.23149725757609488  1.0000
  C   C19       1.0  0.1280881803633761  0.44735653970808514  0.731497257359974  1.0000
  C   C20       1.0  0.37191181945212504  0.9473565389507291  0.7685027426242673  1.0000
  C   C21       1.0  0.9219476752256128  0.8127736894856773  0.39242486704783786  1.0000
  C   C22       1.0  0.5780523244710882  0.31277369024303325  0.10757513275048083  1.0000
  C   C23       1.0  0.07805232493667966  0.18722631099422665  0.6075751325394846  1.0000
  C   C24       1.0  0.4219476756849345  0.6872263102368706  0.8924248674498814  1.0000
  C   C25       1.0  0.8938906157739035  0.3516054043402513  0.21237664112269197  1.0000
  C   C26       1.0  0.6061093839227977  0.8516054035828954  0.2876233586756267  1.0000
  C   C27       1.0  0.10610938357600624  0.6483945961396527  0.7876233590725454  1.0000
  C   C28       1.0  0.393890616239495  0.14839459490239276  0.7123766409116958  1.0000
  C   C29       1.0  0.14789670729128654  0.07448086101742309  0.2835614116524093  1.0000
  C   C30       1.0  0.35210329279299474  0.5744808602600672  0.21643858783473224  1.0000
  C   C31       1.0  0.8521032928710061  0.9255191394624809  0.7164385879349133  1.0000
  C   C32       1.0  0.6478967073692978  0.4255191382252209  0.7835614117525904  1.0000
  C   C33       1.0  0.205229022244368  0.3076032968798255  0.40628470814327194  1.0000
  C   C34       1.0  0.29477097783364337  0.8076032961224696  0.09371529195690911  1.0000
  C   C35       1.0  0.7947709779116547  0.6923967036000784  0.5937152920570903  1.0000
  C   C36       1.0  0.7052290223223794  0.1923967043574344  0.906284708243453  1.0000
  C   C37       1.0  0.22124991261153665  0.10844574034433442  0.34626927477568625  1.0000
  C   C38       1.0  0.2787500874664747  0.6084457395869785  0.1537307253244948  1.0000
  C   C39       1.0  0.7787500875444863  0.8915542601355695  0.6537307254246759  1.0000
  C   C40       1.0  0.7212499126895481  0.39155426089292544  0.8462692748758673  1.0000
  C   C41       1.0  0.9439758801474477  0.5578642281585349  0.006312203197690623  1.0000
  C   C42       1.0  0.5560241195429837  0.05786422692127501  0.4936877972136677  1.0000
  C   C43       1.0  0.056024120008575116  0.44213577232136897  0.9936877970026715  1.0000
  C   C44       1.0  0.4439758798069261  0.9421357735586289  0.5063122029815698  1.0000
  C   C45       1.0  0.9376365181531782  0.7796709649120933  0.06946471444853053  1.0000
  C   C46       1.0  0.5623634823433662  0.27967096566944927  0.43053528596795254  1.0000
  C   C47       1.0  0.06236348200284461  0.2203290335731948  0.9305352857518315  1.0000
  C   C48       1.0  0.43763651781265667  0.7203290348104546  0.5694647142324096  1.0000
  N   N1        1.0  0.9829429423954207  0.20403400934346788  0.21792511388394945  1.0000
  N   N2        1.0  0.5170570581073936  0.7040340105807278  0.28207488591949403  1.0000
  N   N3        1.0  0.0170570577606021  0.7959659911364361  0.7820748863164128  1.0000
  N   N4        1.0  0.4829429420548992  0.29596598989917616  0.7179251136678286  1.0000
  N   N5        1.0  0.8338198446314212  0.9516637343765155  0.3872114683208104  1.0000
  N   N6        1.0  0.66618015506528  0.45166373513387154  0.11278853147750831  1.0000
  N   N7        1.0  0.16618015472475842  0.04833626610338839  0.6127885312613873  1.0000
  N   N8        1.0  0.3338198450907428  0.5483362653460324  0.8872114687228538  1.0000
  O   O1        1.0  0.826144517474446  0.14162090737128608  0.44591618927288357  1.0000
  O   O2        1.0  0.6738554822222552  0.6416209086085459  0.054083810525435184  1.0000
  O   O3        1.0  0.17385548268157686  0.858379091114002  0.5540838109274786  1.0000
  O   O4        1.0  0.32614451713392434  0.35837909187135797  0.9459161890567626  1.0000
  O   O5        1.0  0.023819057507381128  0.8551907934056272  0.10487508439730955  1.0000
  O   O6        1.0  0.47618094257063026  0.35519079416298327  0.3951249157028715  1.0000
  O   O7        1.0  0.9761809418425287  0.14480920707427664  0.8951249157979277  1.0000
  O   O8        1.0  0.5238190575853926  0.6448092063169206  0.6048750844974906  1.0000
  O   O9        1.0  0.8454433130876856  0.8836410784836956  0.08472783061673615  1.0000
  O   O10       1.0  0.6545566866027458  0.3836410772464356  0.41527216979462217  1.0000
  O   O11       1.0  0.1545566870683372  0.11635892199620844  0.9152721695836259  1.0000
  O   O12       1.0  0.345443312747164  0.6163589232334684  0.5847278304006153  1.0000
