data_image0
_chemical_formula_structural       H52C52N8O12
_chemical_formula_sum              "H52 C52 N8 O12"
_cell_length_a       12.366535849086462
_cell_length_b       4.957856975221822
_cell_length_c       19.11541276804432
_cell_angle_alpha    90.0
_cell_angle_beta     99.93388383266486
_cell_angle_gamma    90.0

_space_group_name_H-M_alt    "P 1"
_space_group_IT_number       1

loop_
  _space_group_symop_operation_xyz
  'x, y, z'

loop_
  _atom_site_type_symbol
  _atom_site_label
  _atom_site_symmetry_multiplicity
  _atom_site_fract_x
  _atom_site_fract_y
  _atom_site_fract_z
  _atom_site_occupancy
  H   H1        1.0  0.7997978204327078  0.637593047923406  0.4214447034578699  1.0000
  H   H2        1.0  0.7002021793704847  0.13759304945852716  0.07855529651013755  1.0000
  H   H3        1.0  0.20020217891111555  0.3624069510233522  0.5785552967207355  1.0000
  H   H4        1.0  0.2997978207889868  0.8624069515052315  0.9214447032330083  1.0000
  H   H5        1.0  0.008592150184419407  0.10922335450706942  0.4407782226121741  1.0000
  H   H6        1.0  0.4914078498979547  0.6092233529719482  0.059221777521256874  1.0000
  H   H7        1.0  0.9914078499803288  0.8907766464566893  0.5592217776546878  1.0000
  H   H8        1.0  0.5085921502615167  0.39077664597480993  0.9407782222218887  1.0000
  H   H9        1.0  0.8059524092872525  0.17484309538018003  0.26831649572498006  1.0000
  H   H10       1.0  0.6940475905159398  0.6748430958620594  0.23168350424302733  1.0000
  H   H11       1.0  0.1940475900565707  0.8251569055835787  0.7316835044536254  1.0000
  H   H12       1.0  0.30595240964353165  0.32515690510169926  0.7683164955001184  1.0000
  H   H13       1.0  0.8212129584748652  0.5106204278687836  0.17339273465239777  1.0000
  H   H14       1.0  0.678787042149252  0.01062042738690423  0.3266072654038662  1.0000
  H   H15       1.0  0.178787041689883  0.4893795730949751  0.8266072656144642  1.0000
  H   H16       1.0  0.3212129580102194  0.9893795735768545  0.6733927343392796  1.0000
  H   H17       1.0  0.1426727220744091  0.9728881619833722  0.2379967541630744  1.0000
  H   H18       1.0  0.3573272780026882  0.4728881635184934  0.2620032454466404  1.0000
  H   H19       1.0  0.8573272780850623  0.027111836963385975  0.7620032455800714  1.0000
  H   H20       1.0  0.6426727221567833  0.5271118374452654  0.7379967542965055  1.0000
  H   H21       1.0  0.2891230911473356  0.9961190862669124  0.34560475273413  1.0000
  H   H22       1.0  0.21087690893503852  0.49611908780203356  0.15439524739930097  1.0000
  H   H23       1.0  0.7108769090174126  0.0038809126798457364  0.6543952475327319  1.0000
  H   H24       1.0  0.7891230912297097  0.503880913161725  0.845604752867561  1.0000
  H   H25       1.0  0.2767558442156043  0.7072477579575834  0.4504452532568591  1.0000
  H   H26       1.0  0.22324415586676982  0.20724775747570406  0.04955474687657185  1.0000
  H   H27       1.0  0.7232441559491439  0.29275224300617525  0.5495547470100028  1.0000
  H   H28       1.0  0.7767558442927016  0.7927522434880546  0.950445252866574  1.0000
  H   H29       1.0  0.12641416378478756  0.38249859354104365  0.447702350458333  1.0000
  H   H30       1.0  0.37358583629758657  0.882498594022923  0.05229764967509797  1.0000
  H   H31       1.0  0.8735858363799607  0.6175014054057145  0.5522976498085289  1.0000
  H   H32       1.0  0.6264141638671616  0.11750140492383516  0.947702350591764  1.0000
  H   H33       1.0  0.5267663707664118  0.3016234186410941  0.32021335706620146  1.0000
  H   H34       1.0  0.9732336290367805  0.8016234191229734  0.1797866429018059  1.0000
  H   H35       1.0  0.47323362939305963  0.6983765823226645  0.6797866426769443  1.0000
  H   H36       1.0  0.026766370307042757  0.19837658184078527  0.8202133572767994  1.0000
  H   H37       1.0  0.6633541935270233  0.9625193231368865  0.4491264570992762  1.0000
  H   H38       1.0  0.8366458070970938  0.4625193226550072  0.05087354295698769  1.0000
  H   H39       1.0  0.3366458066377249  0.03748067782687215  0.5508735431675856  1.0000
  H   H40       1.0  0.16335419306237747  0.5374806783087515  0.9491264567861581  1.0000
  H   H41       1.0  0.6546861737826943  0.7196327844532807  0.5144912671677447  1.0000
  H   H42       1.0  0.8453138264591511  0.21963278397140137  0.9855087327088319  1.0000
  H   H43       1.0  0.345313826376777  0.28036721449347746  0.48550873257540095  1.0000
  H   H44       1.0  0.15468617370559712  0.7803672149753568  0.014491267558030076  1.0000
  H   H45       1.0  0.45836970971945845  0.9879539475381599  0.4198871919801939  1.0000
  H   H46       1.0  0.04163029036291568  0.48795394907328105  0.08011280815323706  1.0000
  H   H47       1.0  0.5416302904452898  0.012046051408598353  0.580112808286668  1.0000
  H   H48       1.0  0.9583697098018327  0.5120460518904777  0.9198871921136248  1.0000
  H   H49       1.0  0.4476931112634011  0.7238560305260586  0.4800238971414472  1.0000
  H   H50       1.0  0.05230688799804809  0.22385603004417925  0.019976102903727148  1.0000
  H   H51       1.0  0.5523068880751454  0.2761439684206996  0.519976102513442  1.0000
  H   H52       1.0  0.9476931113457752  0.7761439689025789  0.9800238972748782  1.0000
  C   C1        1.0  0.9481344386236452  0.10926723233595541  0.391774103615928  1.0000
  C   C2        1.0  0.5518655611795471  0.6092672328178347  0.10822589635207941  1.0000
  C   C3        1.0  0.051865561541103035  0.8907327686278032  0.608225896650934  1.0000
  C   C4        1.0  0.4481344389799243  0.39073276814592395  0.8917741033910663  1.0000
  C   C5        1.0  0.9557352255924669  0.3015724429874471  0.33565559330062644  1.0000
  C   C6        1.0  0.5442647742107254  0.8015724434693264  0.16434440666738095  1.0000
  C   C7        1.0  0.04426477457228124  0.6984275579763115  0.6643444069662354  1.0000
  C   C8        1.0  0.4557352259487461  0.19842755749443222  0.8356555930757649  1.0000
  C   C9        1.0  0.8757836692285207  0.31042148002487335  0.27438665313594973  1.0000
  C   C10       1.0  0.6242163313955965  0.8104214805067527  0.2256133469203142  1.0000
  C   C11       1.0  0.12421633093622748  0.6895785189218848  0.7256133471309123  1.0000
  C   C12       1.0  0.3757836687638749  0.18957851844000545  0.7743866528228316  1.0000
  C   C13       1.0  0.8844819918947221  0.49279897589032123  0.22056210920124064  1.0000
  C   C14       1.0  0.6155180087293951  0.9927989763722006  0.27943789085502324  1.0000
  C   C15       1.0  0.1155180082647492  0.5072010230564369  0.7794378905419052  1.0000
  C   C16       1.0  0.3844819914353532  0.007201022574557559  0.7205621094118386  1.0000
  C   C17       1.0  0.14069507643383744  0.8429326160246925  0.2838018507352669  1.0000
  C   C18       1.0  0.35930492364853667  0.34293261554281323  0.21619814939816404  1.0000
  C   C19       1.0  0.8593049237309107  0.15706738493906613  0.716198149531595  1.0000
  C   C20       1.0  0.6406950765109347  0.657067383403945  0.7838018503449817  1.0000
  C   C21       1.0  0.22090492707841528  0.8556580940518551  0.34359681960726657  1.0000
  C   C22       1.0  0.27909507300395886  0.3556580935699758  0.1564031805261644  1.0000
  C   C23       1.0  0.779095072265408  0.14434190691190354  0.6564031805713387  1.0000
  C   C24       1.0  0.7209049271607894  0.6443419053767824  0.8435968197406976  1.0000
  C   C25       1.0  0.21443415644474745  0.6905160792474914  0.40295092705613905  1.0000
  C   C26       1.0  0.28556584363762666  0.19051607876561208  0.0970490730772919  1.0000
  C   C27       1.0  0.7855658437200007  0.30948392171626726  0.5970490732107229  1.0000
  C   C28       1.0  0.7144341565271216  0.8094839221981467  0.9029509271895702  1.0000
  C   C29       1.0  0.1297451171858363  0.508479797339698  0.4015247895485092  1.0000
  C   C30       1.0  0.370254882891261  0.008479796857818593  0.0984752100612056  1.0000
  C   C31       1.0  0.8702548829736351  0.49152020362406074  0.5984752101946366  1.0000
  C   C32       1.0  0.6297451164472855  0.9915202041059401  0.9015247895936837  1.0000
  C   C33       1.0  0.04617423865744434  0.4866085552804918  0.3410350851583604  1.0000
  C   C34       1.0  0.4538257614249298  0.9866085557623712  0.15896491497507054  1.0000
  C   C35       1.0  0.9538257615073039  0.5133914436662664  0.6589649151085015  1.0000
  C   C36       1.0  0.5461742387345416  0.013391443184387036  0.8410350847680752  1.0000
  C   C37       1.0  0.05212661013076243  0.6617946960547807  0.2824653355621318  1.0000
  C   C38       1.0  0.44787338995161163  0.1617946955729013  0.21753466457129914  1.0000
  C   C39       1.0  0.9478733900339859  0.33820530490897804  0.7175346647047302  1.0000
  C   C40       1.0  0.5521266102078597  0.8382053033738568  0.7824653351718465  1.0000
  C   C41       1.0  0.6109229180526193  0.57322867807675  0.40871887552522224  1.0000
  C   C42       1.0  0.8890770817505731  0.07322867759487077  0.09128112444278513  1.0000
  C   C43       1.0  0.389077082106852  0.4267713208700081  0.5912811242179236  1.0000
  C   C44       1.0  0.1109229175932503  0.9267713213518873  0.9087188757358202  1.0000
  C   C45       1.0  0.6115779567271764  0.7967559672943695  0.4630519313871695  1.0000
  C   C46       1.0  0.8884220430760159  0.29675596681249017  0.03694806858083794  1.0000
  C   C47       1.0  0.38842204343757186  0.20324403366938917  0.5369480688796925  1.0000
  C   C48       1.0  0.11157795708345547  0.703244032134268  0.9630519311623078  1.0000
  C   C49       1.0  0.4981407165572251  0.8976425060750937  0.4703478880356256  1.0000
  C   C50       1.0  0.0018592835198722017  0.3976425055932143  0.029652111574089264  1.0000
  C   C51       1.0  0.5018592836022463  0.10235749287166454  0.5296521117075201  1.0000
  C   C52       1.0  0.9981407166395992  0.6023574933535438  0.9703478881690564  1.0000
  N   N1        1.0  0.8684529202622392  0.9352314685908311  0.38227660058440927  1.0000
  N   N2        1.0  0.6315470795409532  0.4352314681089516  0.11772339938359813  1.0000
  N   N3        1.0  0.1315470799025091  0.06476853237292769  0.6177233996824527  1.0000
  N   N4        1.0  0.3684529206185182  0.5647685328548071  0.8822766003595476  1.0000
  N   N5        1.0  0.9701904648697803  0.6584208371307338  0.22449225830847028  1.0000
  N   N6        1.0  0.529809534933412  0.15842083664885448  0.2755077416595371  1.0000
  N   N7        1.0  0.02980953446876606  0.34157916383302483  0.775507741346419  1.0000
  N   N8        1.0  0.4701904652313363  0.8415791643149043  0.7244922586073248  1.0000
  O   O1        1.0  0.8704388790322775  0.7603513572174674  0.43701078713143904  1.0000
  O   O2        1.0  0.629561120770915  0.260351356735588  0.0629892128365683  1.0000
  O   O3        1.0  0.12956112030626907  0.2396486437462913  0.5629892125234501  1.0000
  O   O4        1.0  0.37043887939383335  0.7396486422111701  0.9370107874302936  1.0000
  O   O5        1.0  0.5181620242254069  0.4884474163137091  0.37682499824955284  1.0000
  O   O6        1.0  0.9818379755777853  0.9884474167955886  0.12317500171845452  1.0000
  O   O7        1.0  0.48183797593934125  0.511552582633049  0.623175002017309  1.0000
  O   O8        1.0  0.018162023760761106  0.011552584168170236  0.8768249979364348  1.0000
  O   O9        1.0  0.7024660236865926  0.47801198821270274  0.39744776251409525  1.0000
  O   O10       1.0  0.7975339761165998  0.9780119886945821  0.10255223745391216  1.0000
  O   O11       1.0  0.29753397647287877  0.5219880107340554  0.6025522372290505  1.0000
  O   O12       1.0  0.20246602404814854  0.021988012269176557  0.8974477628129498  1.0000
