data_image0
_chemical_formula_structural       H44C48N12O16S4
_chemical_formula_sum              "H44 C48 N12 O16 S4"
_cell_length_a       3.7249034923943833
_cell_length_b       22.27293286343079
_cell_length_c       15.235781265853506
_cell_angle_alpha    89.99975186583026
_cell_angle_beta     94.74920570972459
_cell_angle_gamma    89.99992922548336

_space_group_name_H-M_alt    "P 1"
_space_group_IT_number       1

loop_
  _space_group_symop_operation_xyz
  'x, y, z'

loop_
  _atom_site_type_symbol
  _atom_site_label
  _atom_site_symmetry_multiplicity
  _atom_site_fract_x
  _atom_site_fract_y
  _atom_site_fract_z
  _atom_site_occupancy
  H   H1        1.0  0.5196256143744641  0.2700896032522527  0.35665216997374827  1.0000
  H   H2        1.0  0.48037919685324537  0.770088847325692  0.14334510162303762  1.0000
  H   H3        1.0  0.48037545194497744  0.7299108641401292  0.6433467328051818  1.0000
  H   H4        1.0  0.5196263909468172  0.2299116115373496  0.8566526531704042  1.0000
  H   H5        1.0  0.08748797390664072  0.19802969272002102  0.5819798277469134  1.0000
  H   H6        1.0  0.9125010034319847  0.6980310691947808  0.9180172122561638  1.0000
  H   H7        1.0  0.9125016574153246  0.801969942275536  0.41801749171714137  1.0000
  H   H8        1.0  0.08749933995410353  0.3019680764146427  0.08198123541569885  1.0000
  H   H9        1.0  0.01187622076534444  0.3961709616243589  0.6738075928833096  1.0000
  H   H10       1.0  0.9881426135712587  0.8961680225726958  0.8261838618181546  1.0000
  H   H11       1.0  0.9881277089729946  0.6038280699397731  0.32619429756360274  1.0000
  H   H12       1.0  0.01185363948102542  0.10383242192126045  0.17381586481335679  1.0000
  H   H13       1.0  0.40550202883191017  0.369867144033662  0.40350358020257787  1.0000
  H   H14       1.0  0.594516770066267  0.8698686256184722  0.09648857313915236  1.0000
  H   H15       1.0  0.5945012385142056  0.63013477174972  0.5964977052184538  1.0000
  H   H16       1.0  0.4054803515335417  0.13012979803745894  0.9035107749294781  1.0000
  H   H17       1.0  0.6184346088513639  0.15769804956648195  0.2660663696784917  1.0000
  H   H18       1.0  0.38156724514510293  0.6576981515986754  0.23393260625850584  1.0000
  H   H19       1.0  0.38156743229454027  0.8423014826100949  0.7339324235522279  1.0000
  H   H20       1.0  0.6184323022137308  0.3423015835146868  0.7660664562425261  1.0000
  H   H21       1.0  0.5560002818163331  0.047552530732461226  0.28642316706860027  1.0000
  H   H22       1.0  0.4439959257944544  0.5475522772822672  0.21357679600429003  1.0000
  H   H23       1.0  0.44399679011057397  0.9524473004615438  0.7135761538670483  1.0000
  H   H24       1.0  0.5560022879561031  0.4524474780350946  0.7864222981961013  1.0000
  H   H25       1.0  0.31996113783408525  0.0059892663588910705  0.4203052655238611  1.0000
  H   H26       1.0  0.6800335144487244  0.5059891450844635  0.07969506783464489  1.0000
  H   H27       1.0  0.6800342169612458  0.9940110627487202  0.5796942976342371  1.0000
  H   H28       1.0  0.31996447668825045  0.4940101019920669  0.9203044635484866  1.0000
  H   H29       1.0  0.14354807606143088  0.07290153503215624  0.5413306225846338  1.0000
  H   H30       1.0  0.8564471040223481  0.5729016777640991  0.9586680456651847  1.0000
  H   H31       1.0  0.8564476887868138  0.9270994769682815  0.4586681220403309  1.0000
  H   H32       1.0  0.14355131981315397  0.4270970848682524  0.04133123142464643  1.0000
  H   H33       1.0  0.6829149557909528  0.25302180813101044  0.1997073121129131  1.0000
  H   H34       1.0  0.31708419431733426  0.7530214091245876  0.3002923303611071  1.0000
  H   H35       1.0  0.3170863140819752  0.7469786246908962  0.8002911485553034  1.0000
  H   H36       1.0  0.6829193181512109  0.2469777122518914  0.6996979878343615  1.0000
  H   H37       1.0  0.04851048786217011  0.3927950735309209  0.19941194259975625  1.0000
  H   H38       1.0  0.9514866444798139  0.8927947695867658  0.3005875904076361  1.0000
  H   H39       1.0  0.951488603065435  0.6072052950868118  0.8005871453536438  1.0000
  H   H40       1.0  0.04850188642821388  0.10720305334756197  0.6994073408152017  1.0000
  H   H41       1.0  0.8026950537564241  0.42894658167169986  0.3110038405200299  1.0000
  H   H42       1.0  0.19730378213247998  0.9289470150584556  0.18899615459913333  1.0000
  H   H43       1.0  0.19730403960118173  0.5710533177661636  0.6889956012712357  1.0000
  H   H44       1.0  0.8026857766899806  0.07105395070166746  0.8110002695847524  1.0000
  C   C1        1.0  0.0992336799584141  0.377505475592648  0.6133084664513403  1.0000
  C   C2        1.0  0.9007876578564697  0.8775018965014021  0.8866843574851041  1.0000
  C   C3        1.0  0.9007943469175905  0.6224941055106142  0.38669616585052063  1.0000
  C   C4        1.0  0.09920770321303964  0.12249803032444546  0.11331504562561368  1.0000
  C   C5        1.0  0.30860714730792277  0.36530534577815743  0.4684611008169557  1.0000
  C   C6        1.0  0.6914122536657242  0.8653064983768644  0.031532443484150345  1.0000
  C   C7        1.0  0.69141827994258  0.6346960577170832  0.5315433020035759  1.0000
  C   C8        1.0  0.30858465437201954  0.13469215515437247  0.9684670038836196  1.0000
  C   C9        1.0  0.24355324906120396  0.3126640766531717  0.5127734660110784  1.0000
  C   C10       1.0  0.7564479033041153  0.8126636902540326  0.9872231753261027  1.0000
  C   C11       1.0  0.7564351947369442  0.6873366255555716  0.4872249208726552  1.0000
  C   C12       1.0  0.24355357503305164  0.18733539474307132  0.012775611953387426  1.0000
  C   C13       1.0  0.2872861202176682  0.2527625389669761  0.4794607846583899  1.0000
  C   C14       1.0  0.7127102173286408  0.7527632165775685  0.020537553039373577  1.0000
  C   C15       1.0  0.7127030624670793  0.7472381677328181  0.5205366739489189  1.0000
  C   C16       1.0  0.28729333278523417  0.24723579254274153  0.9794610376323174  1.0000
  C   C17       1.0  0.2801760284410292  0.15296494342152914  0.46960436648194354  1.0000
  C   C18       1.0  0.7198239525133896  0.6529654459775289  0.03039365538521761  1.0000
  C   C19       1.0  0.7198240396178709  0.847035771805581  0.5303944235760499  1.0000
  C   C20       1.0  0.28017578462783416  0.3470337283660565  0.969605017932258  1.0000
  C   C21       1.0  0.4135588972854491  0.17669165402780576  0.3926156184800179  1.0000
  C   C22       1.0  0.5864409165856508  0.6766915668631474  0.10738253909389991  1.0000
  C   C23       1.0  0.5864411190630184  0.8233088456913819  0.6073829790042918  1.0000
  C   C24       1.0  0.4135594058589529  0.32330780323362596  0.892616161575377  1.0000
  C   C25       1.0  0.5146269039482902  0.13952235715680705  0.3252278296695799  1.0000
  C   C26       1.0  0.485372980206606  0.6395221172303582  0.17477111247486818  1.0000
  C   C27       1.0  0.4853726879245117  0.8604776931375338  0.6747710852688414  1.0000
  C   C28       1.0  0.514626834637214  0.36047752180228315  0.825227912718437  1.0000
  C   C29       1.0  0.476880269402406  0.07803787943505153  0.3373044146595083  1.0000
  C   C30       1.0  0.5231170550758787  0.5780375676207008  0.16269553328517125  1.0000
  C   C31       1.0  0.5231174274963586  0.9219621520019147  0.6626949179153486  1.0000
  C   C32       1.0  0.47688141488385954  0.42196194839252316  0.8373036921017571  1.0000
  C   C33       1.0  0.3448431090654277  0.05447552617529267  0.41418591560832896  1.0000
  C   C34       1.0  0.6551518766233726  0.554475149911717  0.0858138679621465  1.0000
  C   C35       1.0  0.6551530516630116  0.945525044481604  0.5858132534387651  1.0000
  C   C36       1.0  0.34484592057543656  0.44552417214409645  0.9141854204304293  1.0000
  C   C37       1.0  0.24540137088342812  0.09119548941601897  0.48198615253449906  1.0000
  C   C38       1.0  0.7545939332616408  0.5911953379994737  0.018013146264899985  1.0000
  C   C39       1.0  0.7545957108602619  0.9088054291969959  0.5180128475960067  1.0000
  C   C40       1.0  0.24540465883221582  0.4088036742635183  0.9819859217675173  1.0000
  C   C41       1.0  0.7633162119909335  0.2988682799883882  0.222551438503034  1.0000
  C   C42       1.0  0.23668442146698893  0.7988679577850891  0.27744704586859664  1.0000
  C   C43       1.0  0.2366839696576616  0.7011321779758488  0.7774473036664703  1.0000
  C   C44       1.0  0.7633155099806923  0.20113134676909378  0.7225464230728823  1.0000
  C   C45       1.0  0.021251177332368858  0.45633117118293837  0.2867088105042115  1.0000
  C   C46       1.0  0.9787468485537487  0.9563315710165105  0.2132905861591337  1.0000
  C   C47       1.0  0.9787493104178079  0.5436690003337937  0.7132906945186401  1.0000
  C   C48       1.0  0.021245285965833215  0.043669353884063074  0.7867075131049028  1.0000
  N   N1        1.0  0.4143734046604397  0.2385574826894103  0.4016610203811065  1.0000
  N   N2        1.0  0.5856261826075695  0.7385574338390737  0.09833697270114966  1.0000
  N   N3        1.0  0.5856240727081189  0.7614431490290524  0.5983374392747112  1.0000
  N   N4        1.0  0.41437726691294563  0.26144192009433553  0.901661655584931  1.0000
  N   N5        1.0  0.12446062167499693  0.3201538715424494  0.5955791286976075  1.0000
  N   N6        1.0  0.8755377748639999  0.8201515501736427  0.9044174476601862  1.0000
  N   N7        1.0  0.8755199758697405  0.6798457953307042  0.404418652947892  1.0000
  N   N8        1.0  0.12446205026247374  0.17984825767387105  0.09558150682328254  1.0000
  N   N9        1.0  0.2041733005883821  0.20181805296367303  0.5213332133776153  1.0000
  N   N10       1.0  0.7958214039698922  0.701818970281554  0.978664356866589  1.0000
  N   N11       1.0  0.7958194397929331  0.7981828221011725  0.47866447185049643  1.0000
  N   N12       1.0  0.20418026818740453  0.2981801766745845  0.021334131223628646  1.0000
  O   O1        1.0  0.9199712895808497  0.33092589235775466  0.1677642193475169  1.0000
  O   O2        1.0  0.08002949156032828  0.8309257391432655  0.3322341848407791  1.0000
  O   O3        1.0  0.0800275829588528  0.6690745467497844  0.8322344407403429  1.0000
  O   O4        1.0  0.9199588384440982  0.16907109110687377  0.6677604080960627  1.0000
  O   O5        1.0  0.6979133118419568  0.3157173537984976  0.298503568600342  1.0000
  O   O6        1.0  0.30208784349074047  0.8157171896538065  0.20149505919683985  1.0000
  O   O7        1.0  0.30208753878385697  0.6842830179625073  0.7014950862115119  1.0000
  O   O8        1.0  0.6979269988198324  0.1842846736070113  0.798500255651434  1.0000
  O   O9        1.0  0.129557911815204  0.50289630879067  0.3229970430384964  1.0000
  O   O10       1.0  0.8704419685994017  0.002896905094026582  0.1770020056349503  1.0000
  O   O11       1.0  0.8704422940876639  0.4971036620334195  0.677002898781519  1.0000
  O   O12       1.0  0.129552382055959  0.997105535542381  0.8229994722786317  1.0000
  O   O13       1.0  0.15915523947570068  0.43449760999358744  0.21586337799461033  1.0000
  O   O14       1.0  0.8408411702848235  0.9344977694048071  0.2841357930402832  1.0000
  O   O15       1.0  0.8408437357497043  0.5655026100123034  0.7841363702223817  1.0000
  O   O16       1.0  0.1591521146928659  0.06550064976674595  0.7158602332256514  1.0000
  S   S1        1.0  0.21777603719748145  0.42550767877898593  0.5315232368800222  1.0000
  S   S2        1.0  0.7822596401305768  0.9255063927019626  0.968472161455603  1.0000
  S   S3        1.0  0.7822875353360763  0.5744956768437895  0.46849015866782007  1.0000
  S   S4        1.0  0.21774217901670453  0.07449512932842664  0.03153026032411469  1.0000
