data_image0
_chemical_formula_structural       H78C88N12O12S6Cl6
_chemical_formula_sum              "H78 C88 N12 O12 S6 Cl6"
_cell_length_a       12.11812659309163
_cell_length_b       12.716994728126567
_cell_length_c       15.601042918968925
_cell_angle_alpha    81.93851557782705
_cell_angle_beta     77.35292007421509
_cell_angle_gamma    70.51241599411227

_space_group_name_H-M_alt    "P 1"
_space_group_IT_number       1

loop_
  _space_group_symop_operation_xyz
  'x, y, z'

loop_
  _atom_site_type_symbol
  _atom_site_label
  _atom_site_symmetry_multiplicity
  _atom_site_fract_x
  _atom_site_fract_y
  _atom_site_fract_z
  _atom_site_occupancy
  H   H1        1.0  0.9878097599863012  0.34022804031508636  0.17623848225623662  1.0000
  H   H2        1.0  0.012190239921809906  0.6597719594340825  0.8237615178659689  1.0000
  H   H3        1.0  0.8980287179552934  0.5420006225451268  0.1368018727899131  1.0000
  H   H4        1.0  0.10197128195281782  0.4579993772040421  0.8631981273322923  1.0000
  H   H5        1.0  0.7813195096287082  0.6030054010595424  0.01648732271612091  1.0000
  H   H6        1.0  0.21868049027940287  0.3969945986896265  0.9835126774060844  1.0000
  H   H7        1.0  0.7582518970124812  0.4592359330615181  0.9330069502008793  1.0000
  H   H8        1.0  0.24174810289562987  0.5407640666876508  0.06699304992132613  1.0000
  H   H9        1.0  0.8475061499497564  0.2580762848726583  0.97221119881114  1.0000
  H   H10       1.0  0.15249384966559507  0.7419237157108283  0.027788801309025977  1.0000
  H   H11       1.0  0.161286340955508  0.24373480254134627  0.05857896708555773  1.0000
  H   H12       1.0  0.8387136591136497  0.75626519726633  0.9414210323779776  1.0000
  H   H13       1.0  0.26793567717283484  0.11245484493941492  0.07700360472378272  1.0000
  H   H14       1.0  0.7320643227352762  0.887545154809754  0.9229963953984226  1.0000
  H   H15       1.0  0.1865845641896869  0.19456053125284387  0.16721263900741512  1.0000
  H   H16       1.0  0.8134154357184243  0.805439468496325  0.8327873611147901  1.0000
  H   H17       1.0  0.01897736668051432  0.8519504226243014  0.20340255101503488  1.0000
  H   H18       1.0  0.981022633227597  0.1480495771248674  0.7965974491071706  1.0000
  H   H19       1.0  0.8867034948621272  0.8133048511359054  0.10425889417470478  1.0000
  H   H20       1.0  0.1132965050459839  0.18669514861326336  0.8957411059475006  1.0000
  H   H21       1.0  0.4968379739354125  0.8939408584288586  0.2521652529576597  1.0000
  H   H22       1.0  0.5031620256799388  0.106059142154628  0.7478347471625064  1.0000
  H   H23       1.0  0.3599325000715055  0.0968341140621406  0.23663399991388936  1.0000
  H   H24       1.0  0.6400675006621901  0.9031658856885841  0.7633660002050149  1.0000
  H   H25       1.0  0.29097886937352463  0.28435969524004473  0.569616910768991  1.0000
  H   H26       1.0  0.709021130695633  0.7156403045676316  0.43038308869454434  1.0000
  H   H27       1.0  0.1685339802742021  0.29483725121921817  0.520013553339992  1.0000
  H   H28       1.0  0.8314660196339089  0.7051627485299508  0.4799864467822133  1.0000
  H   H29       1.0  0.24318391392041191  0.3956994648093381  0.4897439585040252  1.0000
  H   H30       1.0  0.7568160859876992  0.6043005349398306  0.5102560416181802  1.0000
  H   H31       1.0  0.4726924695009761  0.3893619547362012  0.46489090521290344  1.0000
  H   H32       1.0  0.5273075304071349  0.6106380450129677  0.535109094909302  1.0000
  H   H33       1.0  0.5826199311901424  0.4237313174569847  0.5698677943435057  1.0000
  H   H34       1.0  0.4173800687179687  0.5762686822921842  0.43013220577869965  1.0000
  H   H35       1.0  0.6952759247156269  0.26364315434718194  0.661803412007947  1.0000
  H   H36       1.0  0.3047240748997244  0.7363568462363047  0.3381965881122191  1.0000
  H   H37       1.0  0.6969412126614412  0.07116424317054187  0.6474888015815734  1.0000
  H   H38       1.0  0.3030587874077163  0.9288357566371346  0.35251119788196206  1.0000
  H   H39       1.0  0.5889199501262433  0.037062448245325424  0.5418682648450043  1.0000
  H   H40       1.0  0.41108004978186774  0.9629375515038433  0.4581317352772011  1.0000
  H   H41       1.0  0.7881276169602814  0.9016064928713258  0.4237010177952089  1.0000
  H   H42       1.0  0.21187238294782965  0.09839350687784305  0.5762989823269965  1.0000
  H   H43       1.0  0.0026545094637173937  0.8392565575901997  0.436900283841586  1.0000
  H   H44       1.0  0.997345490151634  0.16074344299328705  0.5630997162785801  1.0000
  H   H45       1.0  0.11489759804232383  0.9802890807351873  0.39337656198886695  1.0000
  H   H46       1.0  0.8851024018657873  0.01971091901398152  0.6066234381333383  1.0000
  H   H47       1.0  0.010086330045680082  0.17124797025778  0.3394665940211119  1.0000
  H   H48       1.0  0.9899136698624309  0.8287520294913887  0.6605334061010933  1.0000
  H   H49       1.0  0.81861299249794  0.44697324508670966  0.42166805307610117  1.0000
  H   H50       1.0  0.18138700823575563  0.5530267546640151  0.578331947042803  1.0000
  H   H51       1.0  0.946200233320087  0.35141275636438074  0.3633046729613506  1.0000
  H   H52       1.0  0.0537997674136086  0.648587243386344  0.6366953271575536  1.0000
  H   H53       1.0  0.8560510715863453  0.3005097381350788  0.453507841825228  1.0000
  H   H54       1.0  0.14394892914735039  0.6994902616156458  0.5464921582936763  1.0000
  H   H55       1.0  0.7045393588539597  0.5311768152798945  0.3115907288809957  1.0000
  H   H56       1.0  0.2954606410541514  0.4688231844692744  0.6884092712412097  1.0000
  H   H57       1.0  0.5497001517857396  0.5374638261780814  0.1325676983984789  1.0000
  H   H58       1.0  0.45029984812237156  0.4625361735710874  0.8674323017237264  1.0000
  H   H59       1.0  0.5956596228000423  0.6169961567221764  0.19508128779024847  1.0000
  H   H60       1.0  0.40434037710806886  0.3830038430269924  0.8049187123319569  1.0000
  H   H61       1.0  0.46537162885614575  0.5782384658966758  0.2373300068009645  1.0000
  H   H62       1.0  0.5346283715847903  0.42176153468836675  0.7626699933159005  1.0000
  H   H63       1.0  0.39627430643720646  0.4228559740795479  0.2284262124135668  1.0000
  H   H64       1.0  0.6037256934709048  0.577144025669621  0.7715737877086385  1.0000
  H   H65       1.0  0.28414453514014787  0.3710812410235625  0.13326612409815727  1.0000
  H   H66       1.0  0.7158554647679632  0.6289187587256063  0.8667338760240481  1.0000
  H   H67       1.0  0.40076726182285144  0.23957001506627573  0.013736338630919193  1.0000
  H   H68       1.0  0.5992327380852598  0.7604299846828931  0.9862636614912861  1.0000
  H   H69       1.0  0.621141269223043  0.15860987757914324  0.0030867954034362213  1.0000
  H   H70       1.0  0.37885873151065264  0.8413901221715814  0.996913204715468  1.0000
  H   H71       1.0  0.8021122851489944  0.15769212656212198  0.10328898974368127  1.0000
  H   H72       1.0  0.19788771558470153  0.8423078731886027  0.8967110103752229  1.0000
  H   H73       1.0  0.7033059517835354  0.1099972496691626  0.23498025417253965  1.0000
  H   H74       1.0  0.29669404783181597  0.890002750914324  0.7650197459476265  1.0000
  H   H75       1.0  0.628889584985689  0.09547912841411299  0.3717641656832319  1.0000
  H   H76       1.0  0.3711104146296622  0.9045208721693737  0.6282358344369342  1.0000
  H   H77       1.0  0.14437417448092596  0.4840688204713673  0.29376867623241987  1.0000
  H   H78       1.0  0.8556258252954718  0.5159311801706269  0.7062313232290762  1.0000
  C   C1        1.0  0.939777154191933  0.36671206858608957  0.1215146518278452  1.0000
  C   C2        1.0  0.06022284654176263  0.6332879311646352  0.8784853482910591  1.0000
  C   C3        1.0  0.8888537637970931  0.4801376429741614  0.09948525256011334  1.0000
  C   C4        1.0  0.11114623611101779  0.5198623567750075  0.900514747562092  1.0000
  C   C5        1.0  0.8232960230481838  0.5140819366073747  0.03164442845393255  1.0000
  C   C6        1.0  0.17670397702097376  0.4859180632003017  0.9683555710096028  1.0000
  C   C7        1.0  0.8098636228804283  0.4339589941497292  0.9855430212212509  1.0000
  C   C8        1.0  0.19013637785326726  0.5660410056009955  0.014456978897653338  1.0000
  C   C9        1.0  0.860199905931213  0.3203378293493074  0.007347254914526971  1.0000
  C   C10       1.0  0.1398000945097231  0.679662171235735  0.9926527452023379  1.0000
  C   C11       1.0  0.925270871379853  0.2860116926714229  0.07605165783580303  1.0000
  C   C12       1.0  0.07472912852825798  0.713988307077746  0.9239483422864023  1.0000
  C   C13       1.0  0.9712809756033435  0.16542734375987406  0.10271490403161045  1.0000
  C   C14       1.0  0.02871902401200793  0.8345726568236127  0.8972850960885556  1.0000
  C   C15       1.0  0.08578152177418152  0.11371140450189239  0.11569393042027849  1.0000
  C   C16       1.0  0.9142184781339295  0.8862885952472764  0.8843060697019269  1.0000
  C   C17       1.0  0.18025297856001632  0.1691138973587582  0.10435891531727946  1.0000
  C   C18       1.0  0.8197470210553353  0.8308861032247286  0.8956410848028866  1.0000
  C   C19       1.0  0.010154846552533934  0.9344499376400963  0.16983510437793314  1.0000
  C   C20       1.0  0.9898451533555772  0.06555006210907259  0.8301648957442722  1.0000
  C   C21       1.0  0.9048549045392703  0.003567504907594944  0.14926350420069315  1.0000
  C   C22       1.0  0.09514509507608104  0.9964324956758916  0.850736495919473  1.0000
  C   C23       1.0  0.7993857161713237  0.9640702657644319  0.17101073209026463  1.0000
  C   C24       1.0  0.20061428456237193  0.035929733986292796  0.8289892680286396  1.0000
  C   C25       1.0  0.8065660191383306  0.8637604148383794  0.145000347007832  1.0000
  C   C26       1.0  0.19343398047702076  0.13623958574510725  0.8549996531123341  1.0000
  C   C27       1.0  0.5797540694560818  0.9130932338554355  0.22720795469351684  1.0000
  C   C28       1.0  0.42024593045202935  0.0869067658937334  0.7727920454286885  1.0000
  C   C29       1.0  0.5959539520504895  0.007855684399283781  0.24588268743253272  1.0000
  C   C30       1.0  0.4040460478576216  0.992144315349885  0.7541173126896727  1.0000
  C   C31       1.0  0.5002597478383933  0.08795030042262955  0.30353751370373555  1.0000
  C   C32       1.0  0.49974025206971784  0.9120496993265393  0.6964624864184699  1.0000
  C   C33       1.0  0.3855176645817411  0.12309341518855245  0.29083918654729163  1.0000
  C   C34       1.0  0.6144823350336102  0.8769065853949344  0.7091608135728744  1.0000
  C   C35       1.0  0.2567687802132756  0.3062026052984805  0.5077612339382075  1.0000
  C   C36       1.0  0.7432312196948355  0.6937973944506882  0.4922387661839978  1.0000
  C   C37       1.0  0.34041425736740355  0.2349371989613562  0.43647759789789187  1.0000
  C   C38       1.0  0.6595857422479477  0.7650628016221306  0.5635224022222743  1.0000
  C   C39       1.0  0.46083963206847833  0.18970983513567782  0.43244360331893966  1.0000
  C   C40       1.0  0.5391603675468729  0.810290165447809  0.5675563968012264  1.0000
  C   C41       1.0  0.5218724070601055  0.21153603373475355  0.49773442946513  1.0000
  C   C42       1.0  0.47812759284800543  0.7884639660144154  0.5022655706570753  1.0000
  C   C43       1.0  0.5206660258541219  0.3202255428621013  0.5060558062890146  1.0000
  C   C44       1.0  0.47933397405398903  0.6797744568870676  0.49394419383319077  1.0000
  C   C45       1.0  0.5830413530931872  0.3390112447566051  0.5645718120868711  1.0000
  C   C46       1.0  0.416958646814924  0.6609887549925637  0.4354281880353341  1.0000
  C   C47       1.0  0.6465811267943361  0.2495461001464308  0.6157188502595495  1.0000
  C   C48       1.0  0.35341887311377496  0.7504538996027381  0.38428114986265577  1.0000
  C   C49       1.0  0.6478150637484992  0.1411043157138615  0.6076402747520238  1.0000
  C   C50       1.0  0.35218493602789874  0.8588956849281327  0.3923597247094724  1.0000
  C   C51       1.0  0.5864287428833295  0.1220163128674688  0.548644788356555  1.0000
  C   C52       1.0  0.41357125702478154  0.8779836868817001  0.4513552117656504  1.0000
  C   C53       1.0  0.8404626003291974  0.9590442559321405  0.4048541424020769  1.0000
  C   C54       1.0  0.1595374005655448  0.04095574387709165  0.5951458570581574  1.0000
  C   C55       1.0  0.9601139776901256  0.9244658060010433  0.4123392295745317  1.0000
  C   C56       1.0  0.039886023204616566  0.07553419380818877  0.5876607698857026  1.0000
  C   C57       1.0  0.021653299630578476  0.002094923319640569  0.38881681671563145  1.0000
  C   C58       1.0  0.9783466999847729  0.9979050772638461  0.6111831834045347  1.0000
  C   C59       1.0  0.9621305053123637  0.11056573654199003  0.3589432707823129  1.0000
  C   C60       1.0  0.037869494302987715  0.8894342640414965  0.6410567293378532  1.0000
  C   C61       1.0  0.8423142928389172  0.13847271398680078  0.3530708271466915  1.0000
  C   C62       1.0  0.15768570789477845  0.8615272857639239  0.6469291729722129  1.0000
  C   C63       1.0  0.7739268372614238  0.2494557802724471  0.31665971108274354  1.0000
  C   C64       1.0  0.2260731628077338  0.7505442195352292  0.6833402883807919  1.0000
  C   C65       1.0  0.7773257120280516  0.35288857885222824  0.33687194614209526  1.0000
  C   C66       1.0  0.22267428788005963  0.6471114208969405  0.6631280539801101  1.0000
  C   C67       1.0  0.8535615501538446  0.3631449341823555  0.39724297781463314  1.0000
  C   C68       1.0  0.14643844975426662  0.6368550655668135  0.6027570223075722  1.0000
  C   C69       1.0  0.703645401884892  0.4493593882467191  0.298599408681811  1.0000
  C   C70       1.0  0.29635459773045947  0.5506406123367675  0.7014005914383551  1.0000
  C   C71       1.0  0.6307905610751265  0.44479882220994943  0.2419281025554299  1.0000
  C   C72       1.0  0.3692094388329845  0.5552011775392194  0.7580718975667755  1.0000
  C   C73       1.0  0.5565507654202494  0.5499410116116753  0.199156669316046  1.0000
  C   C74       1.0  0.44344923448786183  0.45005898813749357  0.8008433308061594  1.0000
  C   C75       1.0  0.6354569596187064  0.33728848694666347  0.22531032445831353  1.0000
  C   C76       1.0  0.36454304045045116  0.6627115128610129  0.7746896750052219  1.0000
  C   C77       1.0  0.5662267285277905  0.3168910442122035  0.16547299463977175  1.0000
  C   C78       1.0  0.4337732713803205  0.6831089555369654  0.8345270054824336  1.0000
  C   C79       1.0  0.4428965075707922  0.3662935266776805  0.17648582277274177  1.0000
  C   C80       1.0  0.5571034923373189  0.6337064730714883  0.8235141773494636  1.0000
  C   C81       1.0  0.38088748188085114  0.337551402979411  0.12295366431879569  1.0000
  C   C82       1.0  0.6191125180272599  0.6624485967697579  0.8770463358034097  1.0000
  C   C83       1.0  0.4442887676673822  0.263245918091221  0.05848650746293166  1.0000
  C   C84       1.0  0.5557112322407288  0.7367540816579478  0.9415134926592738  1.0000
  C   C85       1.0  0.5675309442057695  0.21770092070824806  0.05203646135905131  1.0000
  C   C86       1.0  0.4324690554095818  0.7822990798752386  0.9479635387611147  1.0000
  C   C87       1.0  0.10741249816075114  0.5741281379875567  0.3013278397342011  1.0000
  C   C88       1.0  0.8925875017473599  0.42587186176161207  0.6986721603880043  1.0000
  N   N1        1.0  0.7825087097878722  0.06276646007959266  0.3759743136697127  1.0000
  N   N2        1.0  0.21749129028128528  0.9372335397280835  0.6240256857938227  1.0000
  N   N3        1.0  0.7045745728753364  0.2436701316835683  0.26207792314605344  1.0000
  N   N4        1.0  0.29542542719382126  0.756329868124108  0.737922076317482  1.0000
  N   N5        1.0  0.6281089566015876  0.24233426688483353  0.10474209453924035  1.0000
  N   N6        1.0  0.37189104330652345  0.7576657328643351  0.895257905582965  1.0000
  N   N7        1.0  0.8873960966676436  0.11077543904493639  0.11380732689107097  1.0000
  N   N8        1.0  0.112603904066052  0.8892245607057884  0.8861926732278333  1.0000
  N   N9        1.0  0.699981358208536  0.03299464270450941  0.21916262232501982  1.0000
  N   N10       1.0  0.3000186414068154  0.9670053578789772  0.7808373777951464  1.0000
  N   N11       1.0  0.536426609016355  0.1188547942097848  0.3704766416084409  1.0000
  N   N12       1.0  0.46357339142458115  0.8811452063752578  0.6295233585084241  1.0000
  O   O1        1.0  0.21374734096845432  0.3138772132777041  0.31029482800062097  1.0000
  O   O2        1.0  0.7862526586468969  0.6861227873057825  0.6897051721195452  1.0000
  O   O3        1.0  0.18611197734979282  0.1490942989147248  0.40258592080758265  1.0000
  O   O4        1.0  0.8138880225583183  0.8509057008344442  0.5974140793146228  1.0000
  O   O5        1.0  0.7235495274686722  0.7098469814341929  0.23765288997842404  1.0000
  O   O6        1.0  0.27645047243943893  0.290153018314976  0.7623471101437813  1.0000
  O   O7        1.0  0.6598667855927739  0.7833470539215666  0.09593391808380039  1.0000
  O   O8        1.0  0.3401332143153371  0.21665294582760233  0.904066082038405  1.0000
  O   O9        1.0  0.20664688535615192  0.9428945060822195  0.2095083097864387  1.0000
  O   O10       1.0  0.793353114420246  0.057105494559774574  0.7904916896750575  1.0000
  O   O11       1.0  0.2043869400808025  0.9172335587981758  0.05631349284746519  1.0000
  O   O12       1.0  0.795613059534549  0.0827664417853108  0.9436865072727009  1.0000
  S   S1        1.0  0.2695961502346241  0.20914407591404952  0.35921891264712724  1.0000
  S   S2        1.0  0.7304038498345335  0.7908559238936268  0.6407810868164081  1.0000
  S   S3        1.0  0.13914498841171638  0.9693277450253025  0.13817384285067844  1.0000
  S   S4        1.0  0.8608550114963949  0.030672254723866338  0.861826157271527  1.0000
  S   S5        1.0  0.6922813825701882  0.8065366049653927  0.17427985317688294  1.0000
  S   S6        1.0  0.3077186174989694  0.19346339484228373  0.8257201462866526  1.0000
  Cl  Cl1       1.0  0.963850856534778  0.6241959617737473  0.2748611720896553  1.0000
  Cl  Cl2       1.0  0.03614914337333301  0.3758040379754216  0.72513882803255  1.0000
  Cl  Cl3       1.0  0.20430232331878911  0.6414593157746459  0.2306578589422402  1.0000
  Cl  Cl4       1.0  0.795697676589322  0.35854068397452293  0.7693421411799651  1.0000
  Cl  Cl5       1.0  0.10110676561137956  0.5936265788411264  0.41298119817546347  1.0000
  Cl  Cl6       1.0  0.8988932344577779  0.4063734209665501  0.5870188012880718  1.0000
