data_image0
_chemical_formula_structural       H12C26N2O8Br10
_chemical_formula_sum              "H12 C26 N2 O8 Br10"
_cell_length_a       8.76169491508135
_cell_length_b       9.005610785339822
_cell_length_c       12.125479312769398
_cell_angle_alpha    69.85467281293276
_cell_angle_beta     70.48877221812742
_cell_angle_gamma    76.28655389658114

_space_group_name_H-M_alt    "P 1"
_space_group_IT_number       1

loop_
  _space_group_symop_operation_xyz
  'x, y, z'

loop_
  _atom_site_type_symbol
  _atom_site_label
  _atom_site_symmetry_multiplicity
  _atom_site_fract_x
  _atom_site_fract_y
  _atom_site_fract_z
  _atom_site_occupancy
  H   H1        1.0  0.6761873132733107  0.4658721703699247  0.22303762788836393  1.0000
  H   H2        1.0  0.3238126862129217  0.5341278302796506  0.7769623728022496  1.0000
  H   H3        1.0  0.7736256880322299  0.7386638604262351  0.1989420775708771  1.0000
  H   H4        1.0  0.22637431179086998  0.26133614056961124  0.8010579222056005  1.0000
  H   H5        1.0  0.8141273229274416  0.6202624974974642  0.39516758198748264  1.0000
  H   H6        1.0  0.18587267715795885  0.3797375023556083  0.6048324177887001  1.0000
  H   H7        1.0  0.01526707511190277  0.03946073710145229  0.3518765674546173  1.0000
  H   H8        1.0  0.9847329261190708  0.9605392627356982  0.6481234323205297  1.0000
  H   H9        1.0  0.9584806874174562  0.15827002047811328  0.14775104275553616  1.0000
  H   H10       1.0  0.04151931240564369  0.841729980517733  0.8522489570209414  1.0000
  H   H11       1.0  0.8272535426471488  0.9953312921285288  0.0773064101451134  1.0000
  H   H12       1.0  0.1727464571759511  0.004668708867317529  0.9226935896313643  1.0000
  C   C1        1.0  0.5065639195569815  0.15738928870611968  0.42418783141278277  1.0000
  C   C2        1.0  0.49343608052841903  0.8426107111469526  0.5758121683634001  1.0000
  C   C3        1.0  0.5398906634607095  0.11282520345650572  0.5374006278617002  1.0000
  C   C4        1.0  0.4601093362878236  0.8871747960502958  0.4625993728286185  1.0000
  C   C5        1.0  0.4663048638396015  0.04461538632094588  0.3865691238605211  1.0000
  C   C6        1.0  0.5336951362457989  0.9553846135321268  0.6134308759156617  1.0000
  C   C7        1.0  0.5156768365689647  0.32824658964385633  0.34530279981434914  1.0000
  C   C8        1.0  0.4843231631795685  0.6717534098629451  0.6546972008759696  1.0000
  C   C9        1.0  0.5911625005018684  0.5923670380916576  0.020102978178594834  1.0000
  C   C10       1.0  0.40883749958353216  0.40763296176141495  0.9798970215975878  1.0000
  C   C11       1.0  0.4201935570893402  0.6225632653538593  0.05363994078030573  1.0000
  C   C12       1.0  0.5798064426591928  0.3774367341529422  0.946360059910013  1.0000
  C   C13       1.0  0.3298999545309866  0.5292719275171607  0.03471813529605212  1.0000
  C   C14       1.0  0.6701000463631197  0.47072807197371885  0.9652818653932307  1.0000
  C   C15       1.0  0.6892475509880179  0.6898101326916386  0.04479468856577629  1.0000
  C   C16       1.0  0.31075244876051544  0.3101898668151629  0.9552053121245423  1.0000
  C   C17       1.0  0.8492994575384474  0.7386115629145621  0.3449946909699987  1.0000
  C   C18       1.0  0.15070054254695314  0.26138843693851027  0.6550053088061841  1.0000
  C   C19       1.0  0.9196479547937076  0.8212933847983992  0.3891231058626907  1.0000
  C   C20       1.0  0.0803520452916929  0.17870661505467325  0.6108768939134921  1.0000
  C   C21       1.0  0.9591187404701905  0.9738385257363333  0.3187004766276162  1.0000
  C   C22       1.0  0.04088125961521019  0.026161474116739115  0.6812995231485666  1.0000
  C   C23       1.0  0.9268332062573756  0.04067134933042811  0.2050750672397411  1.0000
  C   C24       1.0  0.0731667934911576  0.9593286501763734  0.7949249334505776  1.0000
  C   C25       1.0  0.8568328404760432  0.9537765049691975  0.16440863931577168  1.0000
  C   C26       1.0  0.1431671596093573  0.04622349488387496  0.835591360460411  1.0000
  N   N1        1.0  0.8211028678147602  0.8073275971717836  0.23496737067588708  1.0000
  N   N2        1.0  0.17889713227064047  0.19267240268128868  0.7650326291002957  1.0000
  O   O1        1.0  0.3977767998328295  0.4333987722823735  0.3536802511481702  1.0000
  O   O2        1.0  0.6022231999902703  0.5666012287134726  0.6463197486283075  1.0000
  O   O3        1.0  0.6650632949974552  0.3463046628523317  0.27203657005777265  1.0000
  O   O4        1.0  0.3349367050879455  0.6536953370007408  0.7279634297184102  1.0000
  O   O5        1.0  0.7198907221519127  0.62903775364909  0.15050203186694008  1.0000
  O   O6        1.0  0.2801092775966205  0.37096224585771165  0.8494979688233786  1.0000
  O   O7        1.0  0.7330044729608474  0.8151296411086274  0.9677013011195179  1.0000
  O   O8        1.0  0.2669955268622526  0.1848703598872186  0.032298698656959876  1.0000
  Br  Br1       1.0  0.5864888509230346  0.27084485761532323  0.5875104602201153  1.0000
  Br  Br2       1.0  0.4135111488254986  0.7291551418914782  0.41248954047020336  1.0000
  Br  Br3       1.0  0.4148390197019003  0.10638772104754157  0.2356305190986375  1.0000
  Br  Br4       1.0  0.5851609797843321  0.8936122796020339  0.7643694815919759  1.0000
  Br  Br5       1.0  0.31782364671314833  0.7977409858404619  0.11638367105748998  1.0000
  Br  Br6       1.0  0.6821763533722522  0.20225901401261065  0.8836163287186928  1.0000
  Br  Br7       1.0  0.09825462416525414  0.5633960394511163  0.08292685393647227  1.0000
  Br  Br8       1.0  0.9017453756578457  0.43660396154472986  0.9170731458400054  1.0000
  Br  Br9       1.0  0.9598208130314189  0.7238039744270147  0.5433752134212064  1.0000
  Br  Br10      1.0  0.04017918671711443  0.2761960250797866  0.45662478726911226  1.0000
