data_image0
_chemical_formula_structural       H20C28N4O12Br8
_chemical_formula_sum              "H20 C28 N4 O12 Br8"
_cell_length_a       8.967290295305258
_cell_length_b       9.340890658785787
_cell_length_c       12.146479243591621
_cell_angle_alpha    109.47602088962562
_cell_angle_beta     108.28432842888935
_cell_angle_gamma    92.57893814281607

_space_group_name_H-M_alt    "P 1"
_space_group_IT_number       1

loop_
  _space_group_symop_operation_xyz
  'x, y, z'

loop_
  _atom_site_type_symbol
  _atom_site_label
  _atom_site_symmetry_multiplicity
  _atom_site_fract_x
  _atom_site_fract_y
  _atom_site_fract_z
  _atom_site_occupancy
  H   H1        1.0  0.7327990073720856  0.30873770059399486  0.34064287272135674  1.0000
  H   H2        1.0  0.26720099341338766  0.6912622999412861  0.6593571276415244  1.0000
  H   H3        1.0  0.6377265613198629  0.759526492733672  0.3907095979385386  1.0000
  H   H4        1.0  0.36227343829534736  0.2404735067340907  0.6092904024234637  1.0000
  H   H5        1.0  0.9371763273620868  0.7790230272696738  0.4472932233238823  1.0000
  H   H6        1.0  0.06282367300305061  0.2209769728493442  0.5527067761071641  1.0000
  H   H7        1.0  0.06390835616418804  0.8719448638180456  0.3232220172908995  1.0000
  H   H8        1.0  0.9360916442009496  0.1280551363009724  0.676777982140147  1.0000
  H   H9        1.0  0.5955075423749299  0.917523951177458  0.10306312075910308  1.0000
  H   H10       1.0  0.40449245724028055  0.08247604829030464  0.8969368796028991  1.0000
  H   H11       1.0  0.4896527302397923  0.8289292326983707  0.22933162677325547  1.0000
  H   H12       1.0  0.5103472690122234  0.17107076742698737  0.7706683726618496  1.0000
  H   H13       1.0  0.7493207978507328  0.08504573592680173  0.07997303902360772  1.0000
  H   H14       1.0  0.2506792018216187  0.9149542646148192  0.9200269613433321  1.0000
  H   H15       1.0  0.8900257690837422  0.06486147034058663  0.0033195766393313794  1.0000
  H   H16       1.0  0.10997423128139527  0.9351385297784313  0.9966804227917151  1.0000
  H   H17       1.0  0.2983772492697786  0.7802620619666338  0.3007680224751864  1.0000
  H   H18       1.0  0.7016227510953588  0.21973793815238404  0.69923197695586  1.0000
  H   H19       1.0  0.20905594792371504  0.8164570509860528  0.1798166956517383  1.0000
  H   H20       1.0  0.7909440516914953  0.18354294848171  0.820183304710264  1.0000
  C   C1        1.0  0.712288857893216  0.2718731699350934  0.490701954898543  1.0000
  C   C2        1.0  0.2877111413016584  0.7281268291164062  0.5092980445316245  1.0000
  C   C3        1.0  0.6031042028563273  0.39118651462136994  0.49548667043987465  1.0000
  C   C4        1.0  0.39689579675888315  0.6088134848463929  0.5045133299221277  1.0000
  C   C5        1.0  0.6649841041073593  0.5484822409738308  0.55492593942868  1.0000
  C   C6        1.0  0.335015896678114  0.4515177595614502  0.4450740609342012  1.0000
  C   C7        1.0  0.5620454248904241  0.6569104588818336  0.5602353392004729  1.0000
  C   C8        1.0  0.4379545758950493  0.3430895416534473  0.4397646611624083  1.0000
  C   C9        1.0  0.6179571355232347  0.32516683019578657  0.1596668319772379  1.0000
  C   C10       1.0  0.3820428640919756  0.6748331692719761  0.8403331683847644  1.0000
  C   C11       1.0  0.5589750020648879  0.4223697119850309  0.08176129832143778  1.0000
  C   C12       1.0  0.4410249971871277  0.5776302881403271  0.9182387011136672  1.0000
  C   C13       1.0  0.6587698319955361  0.47670613602309475  0.03054521568737197  1.0000
  C   C14       1.0  0.3412301687899372  0.5232938645121862  0.9694547846755092  1.0000
  C   C15       1.0  0.5990086919256393  0.5521560414291672  0.9477246536081452  1.0000
  C   C16       1.0  0.4009913088598341  0.4478439591061138  0.05227534675473607  1.0000
  C   C17       1.0  0.7027518333560974  0.8007044959164311  0.34217749166315475  1.0000
  C   C18       1.0  0.2972481673722347  0.1992955035449915  0.657822508694789  1.0000
  C   C19       1.0  0.8660074788062265  0.8119683934655361  0.3716303226459577  1.0000
  C   C20       1.0  0.1339925219792468  0.18803160706974498  0.6283696777169235  1.0000
  C   C21       1.0  0.9358704037285597  0.8636850625481362  0.30123858202182463  1.0000
  C   C22       1.0  0.06412959699977251  0.13631493691328647  0.698761418336119  1.0000
  C   C23       1.0  0.8425854893399601  0.9043098731214174  0.2036343387846354  1.0000
  C   C24       1.0  0.15741451102517737  0.09569012699760047  0.796365660646411  1.0000
  C   C25       1.0  0.6788689792345666  0.8920692835967877  0.17871898600675606  1.0000
  C   C26       1.0  0.32113102038064373  0.10793071587097504  0.8212810143552461  1.0000
  C   C27       1.0  0.9189413094096854  0.9506762985013879  0.1242471561581619  1.0000
  C   C28       1.0  0.08105869131864671  0.049323700960034876  0.8757528441997819  1.0000
  N   N1        1.0  0.6149353569297826  0.8409103668625983  0.2479667957653974  1.0000
  N   N2        1.0  0.38506464385569067  0.1590896336726826  0.7520332045974838  1.0000
  N   N3        1.0  0.8470896778474826  0.03950935932760393  0.06558672475387764  1.0000
  N   N4        1.0  0.15291032251765496  0.9604906407914139  0.9344132746771688  1.0000
  O   O1        1.0  0.739324016552331  0.20888736576821085  0.5685277517920083  1.0000
  O   O2        1.0  0.2606759826996846  0.7911126343571472  0.43147224764309666  1.0000
  O   O3        1.0  0.7721601402286415  0.23934419559109216  0.40235138277858046  1.0000
  O   O4        1.0  0.22783985902337414  0.760655804534266  0.5976486166565246  1.0000
  O   O5        1.0  0.6914265419991465  0.3986090044716822  0.27628614156019826  1.0000
  O   O6        1.0  0.3085734571957279  0.6013909945798175  0.7237138578699692  1.0000
  O   O7        1.0  0.5903119055621869  0.18212304714085512  0.1023910526689653  1.0000
  O   O8        1.0  0.4096880936898288  0.817876952984503  0.8976089467661398  1.0000
  O   O9        1.0  0.04511725335451546  0.9023782371280822  0.11474324370813216  1.0000
  O   O10       1.0  0.9548827474309579  0.09762176340719875  0.8852567566547489  1.0000
  O   O11       1.0  0.31097022511564726  0.7929255103387702  0.22597438109846726  1.0000
  O   O12       1.0  0.6890297756698261  0.20707449019651075  0.7740256192644139  1.0000
  Br  Br1       1.0  0.8887808614441187  0.6109221012634684  0.6277081166699361  1.0000
  Br  Br2       1.0  0.11121913780789695  0.3890778988618897  0.372291882765169  1.0000
  Br  Br3       1.0  0.6401572009411121  0.8701374313064355  0.646907238488493  1.0000
  Br  Br4       1.0  0.3598427987312394  0.12986256923518558  0.3530927618784468  1.0000
  Br  Br5       1.0  0.8743355917168035  0.44951803673164786  0.0774023350912364  1.0000
  Br  Br6       1.0  0.1256644079555481  0.5504819638099732  0.9225976652757034  1.0000
  Br  Br7       1.0  0.7272161371670348  0.6198183250729866  0.8708416029115473  1.0000
  Br  Br8       1.0  0.27278386319810277  0.38018167504603134  0.12915839651949923  1.0000
