data_image0
_chemical_formula_structural       H44C54N4O10
_chemical_formula_sum              "H44 C54 N4 O10"
_cell_length_a       12.953405916464675
_cell_length_b       5.595138240429956
_cell_length_c       15.358984353179638
_cell_angle_alpha    90.0
_cell_angle_beta     93.46608565599882
_cell_angle_gamma    90.0

_space_group_name_H-M_alt    "P 1"
_space_group_IT_number       1

loop_
  _space_group_symop_operation_xyz
  'x, y, z'

loop_
  _atom_site_type_symbol
  _atom_site_label
  _atom_site_symmetry_multiplicity
  _atom_site_fract_x
  _atom_site_fract_y
  _atom_site_fract_z
  _atom_site_occupancy
  H   H1        1.0  0.8615673790048037  0.9132228928819737  0.4176200008245627  1.0000
  H   H2        1.0  0.13843262165399187  0.4132228929203959  0.5823799993735262  1.0000
  H   H3        1.0  0.6984996107407442  0.7056073613109906  0.4267489941988897  1.0000
  H   H4        1.0  0.30150038914855476  0.20560736134941288  0.5732510053055992  1.0000
  H   H5        1.0  0.5400540015437064  0.28264651417772196  0.34083740447295424  1.0000
  H   H6        1.0  0.4599459983416866  0.7826465141392996  0.6591625956824121  1.0000
  H   H7        1.0  0.1029856125036329  0.4440285214130987  0.8093452593403198  1.0000
  H   H8        1.0  0.8970143873817601  0.9440285213746763  0.1906547408150464  1.0000
  H   H9        1.0  0.09754380706069186  0.09636542777512627  0.7026727215203702  1.0000
  H   H10       1.0  0.9024561936020095  0.596365427736704  0.2973272780268415  1.0000
  H   H11       1.0  0.8141416815536126  0.7140837881590886  0.6916292936216635  1.0000
  H   H12       1.0  0.18585831833568625  0.2140837881975108  0.30837070588282556  1.0000
  H   H13       1.0  0.9649942707374901  0.744506094576833  0.8028432470157321  1.0000
  H   H14       1.0  0.03500572915180864  0.24450609461525533  0.1971567524887569  1.0000
  H   H15       1.0  0.6381955884414648  0.7100857743408846  0.25040076401226263  1.0000
  H   H16       1.0  0.361804411447834  0.2100857743793069  0.7495992354922264  1.0000
  H   H17       1.0  0.585733245516073  0.5572537935649656  0.10315934096277307  1.0000
  H   H18       1.0  0.41426675436932  0.05725379360338796  0.8968406591925931  1.0000
  H   H19       1.0  0.4456728575373996  0.7603090678369191  0.012790258355498386  1.0000
  H   H20       1.0  0.5543271431213961  0.2603090678753414  0.9872097418425906  1.0000
  H   H21       1.0  0.3590742460281941  0.1190475179302835  0.07039839496955239  1.0000
  H   H22       1.0  0.6409257538611047  0.6190475178918612  0.9296016045349366  1.0000
  H   H23       1.0  0.41355810385119035  0.27686378127468053  0.21791101196050724  1.0000
  H   H24       1.0  0.5864418960342027  0.7768637812362582  0.7820889881948591  1.0000
  H   H25       1.0  0.49860798009797547  0.7566783943616489  0.3850163501916526  1.0000
  H   H26       1.0  0.5013920205647259  0.25667839440007106  0.6149836493555592  1.0000
  H   H27       1.0  0.4117316567871637  0.0020169153138087283  0.39203982672621496  1.0000
  H   H28       1.0  0.5882683430982294  0.5020169152753864  0.6079601734291513  1.0000
  H   H29       1.0  0.7341142511732144  0.08791724687792513  0.8356468081849783  1.0000
  H   H30       1.0  0.2658857487121787  0.5879172468395029  0.16435319197038797  1.0000
  H   H31       1.0  0.8121643814616942  0.8539187084737433  0.8811618033747787  1.0000
  H   H32       1.0  0.18783561842760452  0.3539187085121655  0.11883819612971035  1.0000
  H   H33       1.0  0.8704576972175558  0.10582414491951861  0.8322448787551753  1.0000
  H   H34       1.0  0.12954230267174294  0.6058241448810963  0.1677551207493137  1.0000
  H   H35       1.0  0.920631198217789  0.4441359468196162  0.9213482334785272  1.0000
  H   H36       1.0  0.07936880167150984  0.944135946781194  0.07865176602596169  1.0000
  H   H37       1.0  0.8105901404742359  0.5229007710406769  0.17932001221087257  1.0000
  H   H38       1.0  0.18940985941506278  0.022900771079099144  0.8206799872936165  1.0000
  H   H39       1.0  0.7060426292171518  0.9349637819847695  0.017430339791851733  1.0000
  H   H40       1.0  0.29395737067214683  0.4349637820231917  0.9825696597126371  1.0000
  H   H41       1.0  0.7052644962120385  0.15638278133638434  0.15666475771854477  1.0000
  H   H42       1.0  0.29473550367335455  0.656382781297962  0.8433352424368213  1.0000
  H   H43       1.0  0.9211961655317588  0.6656238505581251  0.06099497473042848  1.0000
  H   H44       1.0  0.07880383435363425  0.16562385059654738  0.9390050254249378  1.0000
  C   C1        1.0  0.46904787814317234  0.8288242990120726  0.07732509694008538  1.0000
  C   C2        1.0  0.5309521217461264  0.32882429905049493  0.9226749025644035  1.0000
  C   C3        1.0  0.4205324898965004  0.0302824582198312  0.10979993782987242  1.0000
  C   C4        1.0  0.5794675099888926  0.530282458181409  0.8902000623254939  1.0000
  C   C5        1.0  0.4506603523457916  0.11828761534748809  0.19253261116038808  1.0000
  C   C6        1.0  0.5493396475396015  0.6182876153090658  0.8074673889949782  1.0000
  C   C7        1.0  0.5292061358313265  0.003909545941499216  0.2434336809908168  1.0000
  C   C8        1.0  0.4707938640540666  0.5039095459030769  0.7565663191645494  1.0000
  C   C9        1.0  0.5569182101583117  0.09054294071580803  0.33515596641914797  1.0000
  C   C10       1.0  0.44308178972708134  0.5905429406773858  0.6648440337362184  1.0000
  C   C11       1.0  0.7488664994802874  0.1943701340820543  0.3720166091788167  1.0000
  C   C12       1.0  0.25113350040510574  0.694370134043632  0.6279833909765496  1.0000
  C   C13       1.0  0.8017585494226243  0.027223107536355574  0.44349783550226285  1.0000
  C   C14       1.0  0.19824145046667457  0.5272231074979333  0.5565021640022261  1.0000
  C   C15       1.0  0.9344853308411906  0.04897619830371562  0.5678166904643246  1.0000
  C   C16       1.0  0.06551466904420247  0.5489761982652933  0.4321833096910416  1.0000
  C   C17       1.0  0.9537925272197993  0.21911595876955306  0.6410434928139072  1.0000
  C   C18       1.0  0.04620747266559375  0.7191159587311309  0.3589565073414591  1.0000
  C   C19       1.0  0.03635024176711109  0.23015214542778567  0.7027704059552154  1.0000
  C   C20       1.0  0.9636497581221877  0.7301521453893633  0.29722959354927353  1.0000
  C   C21       1.0  0.03842770971297781  0.423446027281345  0.760997223887533  1.0000
  C   C22       1.0  0.9615722909458179  0.9234460272429228  0.23900277631055594  1.0000
  C   C23       1.0  0.6947010575376205  0.8975948000194671  0.44105772874324756  1.0000
  C   C24       1.0  0.30529894234777266  0.39759480005788955  0.5589422714121187  1.0000
  C   C25       1.0  0.8747663921470011  0.3903493079434918  0.6373742870470801  1.0000
  C   C26       1.0  0.12523360774229764  0.8903493079050696  0.3626257124574088  1.0000
  C   C27       1.0  0.8754053564889884  0.5799438209681571  0.6956800048942481  1.0000
  C   C28       1.0  0.12459464416980713  0.07994382100657939  0.30431999530384085  1.0000
  C   C29       1.0  0.9595503404599216  0.5950217522675841  0.757352116629009  1.0000
  C   C30       1.0  0.04044965942547134  0.09502175230600644  0.24264788352635722  1.0000
  C   C31       1.0  0.8033065082034708  0.33349037142943116  0.5610823055274814  1.0000
  C   C32       1.0  0.19669349168192216  0.8334903713910089  0.4389176946278849  1.0000
  C   C33       1.0  0.6254472007295035  0.9407038653607133  0.5153135129604073  1.0000
  C   C34       1.0  0.37455279915588957  0.4407038636118697  0.4846864871949589  1.0000
  C   C35       1.0  0.4929135754831363  0.9489937713481722  0.3981067252818715  1.0000
  C   C36       1.0  0.5070864251756594  0.44899377138659446  0.6018932749162175  1.0000
  C   C37       1.0  0.5770806413273958  0.8006848995487447  0.21097081131191175  1.0000
  C   C38       1.0  0.4229193585579974  0.30068489958716704  0.7890291888434545  1.0000
  C   C39       1.0  0.5473945919090749  0.7144325802561091  0.12797674121150918  1.0000
  C   C40       1.0  0.45260540797631815  0.21443258029453147  0.8720232589438571  1.0000
  C   C41       1.0  0.8124091499199001  0.42691906211354724  0.11790449831127245  1.0000
  C   C42       1.0  0.1875908499654928  0.926919062075125  0.8820955018440938  1.0000
  C   C43       1.0  0.873535692332671  0.5058423060128914  0.05189808070618749  1.0000
  C   C44       1.0  0.12646430755272203  0.005842306051313589  0.9481019194491788  1.0000
  C   C45       1.0  0.8733834621813197  0.38072147075964047  0.9731049271864199  1.0000
  C   C46       1.0  0.12661653770407327  0.8807214707212183  0.026895072968946287  1.0000
  C   C47       1.0  0.8125585799232162  0.17557270755199633  0.958788544232159  1.0000
  C   C48       1.0  0.18744142073557937  0.675572707513574  0.041211455965929865  1.0000
  C   C49       1.0  0.7532685958517342  0.09559960398027562  0.026563775542349254  1.0000
  C   C50       1.0  0.24673140481096723  0.5955996039418534  0.9734362240048624  1.0000
  C   C51       1.0  0.7527554784507586  0.22027650739605154  0.10520806583349769  1.0000
  C   C52       1.0  0.2472445222119427  0.7202765073576293  0.894791933713714  1.0000
  C   C53       1.0  0.8077495974145742  0.04861411967170592  0.8724333262640154  1.0000
  C   C54       1.0  0.19225040247472455  0.5486141196332837  0.12756667324047372  1.0000
  N   N1        1.0  0.6636636881254843  0.049064941419374876  0.36532241640493057  1.0000
  N   N2        1.0  0.3363363117599088  0.5490649413809526  0.6346775837504357  1.0000
  N   N3        1.0  0.8435427198338972  0.13073479305915947  0.5224281337899299  1.0000
  N   N4        1.0  0.15645728082489857  0.6307347930207372  0.4775718664081591  1.0000
  O   O1        1.0  0.9830683080405391  0.8719629668390633  0.5481990709390772  1.0000
  O   O2        1.0  0.016931692618256534  0.3719629668774854  0.4518009292590118  1.0000
  O   O3        1.0  0.7244154568307477  0.4352871538367648  0.5327451493969695  1.0000
  O   O4        1.0  0.27558454305464525  0.9352871537983425  0.4672548507583967  1.0000
  O   O5        1.0  0.7698933435176657  0.37826486121589786  0.333978390938913  1.0000
  O   O6        1.0  0.2301066563677273  0.8782648611774755  0.6660216092164533  1.0000
  O   O7        1.0  0.6516902626996266  0.9363775218532221  0.5929125869778799  1.0000
  O   O8        1.0  0.3483097371896721  0.43637752189164447  0.4070874125266091  1.0000
  O   O9        1.0  0.5257422793304094  0.9906033044813713  0.4892154162540494  1.0000
  O   O10       1.0  0.47425772055498366  0.4906033045197936  0.5107845839013168  1.0000
