data_image0
_chemical_formula_structural       H66C58N6O8Cl4
_chemical_formula_sum              "H66 C58 N6 O8 Cl4"
_cell_length_a       6.826704831333522
_cell_length_b       9.256195884647752
_cell_length_c       22.071999282748653
_cell_angle_alpha    95.13417029853713
_cell_angle_beta     93.9578095253222
_cell_angle_gamma    100.20422837736669

_space_group_name_H-M_alt    "P 1"
_space_group_IT_number       1

loop_
  _space_group_symop_operation_xyz
  'x, y, z'

loop_
  _atom_site_type_symbol
  _atom_site_label
  _atom_site_symmetry_multiplicity
  _atom_site_fract_x
  _atom_site_fract_y
  _atom_site_fract_z
  _atom_site_occupancy
  H   H1        1.0  0.8604506942559186  0.7642229035472249  0.9267418238760136  1.0000
  H   H2        1.0  0.13954930539682323  0.2357770965990031  0.073258175747502  1.0000
  H   H3        1.0  0.9540636168164814  0.8422986054563256  0.0015921473238173463  1.0000
  H   H4        1.0  0.04593638283626021  0.1577013946899022  0.9984078522996981  1.0000
  H   H5        1.0  0.83431327774792  0.02590849184715182  0.9324352386378923  1.0000
  H   H6        1.0  0.1656867232483713  0.9740915073217196  0.06756476144113607  1.0000
  H   H7        1.0  0.714925312066842  0.014976776838142603  0.0008170949455861364  1.0000
  H   H8        1.0  0.28507468773744954  0.985023223434311  0.9991829051344654  1.0000
  H   H9        1.0  0.13101123603347495  0.6211002377884212  0.9035783272101262  1.0000
  H   H10       1.0  0.8689887635011944  0.37889976138763903  0.09642167287490827  1.0000
  H   H11       1.0  0.2120754698123646  0.030030777178881928  0.8200520288660759  1.0000
  H   H12       1.0  0.7879245298403772  0.9699692229673461  0.1799479707574395  1.0000
  H   H13       1.0  0.5457400945650625  0.10363048524467783  0.8746569139146351  1.0000
  H   H14       1.0  0.45425990523922916  0.8963695150277758  0.12534308616541642  1.0000
  H   H15       1.0  0.9589352943109977  0.8988245911518967  0.7592650678756233  1.0000
  H   H16       1.0  0.04106470695491606  0.10117540911336816  0.24073493219842226  1.0000
  H   H17       1.0  0.8587092023991361  0.9644828608280341  0.8269247442535425  1.0000
  H   H18       1.0  0.14129079740515568  0.03551713944441962  0.1730752558265091  1.0000
  H   H19       1.0  0.5849522751386121  0.8665216443365422  0.7511168378396054  1.0000
  H   H20       1.0  0.41504772451412963  0.13347835580968564  0.24888316178391007  1.0000
  H   H21       1.0  0.5750659259860865  0.747867907017506  0.8094924826718009  1.0000
  H   H22       1.0  0.4249340738182051  0.25213209325494756  0.19050751740825056  1.0000
  H   H23       1.0  0.7392499000882529  0.5729985511845646  0.744870848851448  1.0000
  H   H24       1.0  0.26075009971603885  0.4270014490878891  0.2551291512286034  1.0000
  H   H25       1.0  0.7528790208891919  0.695366610293437  0.6872299446384711  1.0000
  H   H26       1.0  0.24712098022517207  0.30463338984560195  0.3127700549790385  1.0000
  H   H27       1.0  0.36275008962275446  0.5492009195333796  0.7358540695232989  1.0000
  H   H28       1.0  0.6372499101815372  0.4507990807390741  0.26414593055675256  1.0000
  H   H29       1.0  0.3813079566945793  0.6654171322653416  0.6761616342511648  1.0000
  H   H30       1.0  0.6186920431097123  0.3345828680071121  0.3238383658288867  1.0000
  H   H31       1.0  0.15978190231146983  0.4810812807307747  0.6156717101473366  1.0000
  H   H32       1.0  0.840218098954444  0.5189187195344901  0.3843282899267089  1.0000
  H   H33       1.0  0.15185135324581386  0.3581811426743871  0.6734392845666212  1.0000
  H   H34       1.0  0.8481486462888553  0.6418188565016731  0.32656071551841337  1.0000
  H   H35       1.0  0.25988784033973455  0.16989107659015032  0.6040428501954643  1.0000
  H   H36       1.0  0.7401121593130073  0.8301089235560776  0.3959571494280512  1.0000
  H   H37       1.0  0.04756574220769393  0.22782024816119684  0.569252055554685  1.0000
  H   H38       1.0  0.9524342575965977  0.7721797521112569  0.43074794452536647  1.0000
  H   H39       1.0  0.7120308897487577  0.523191465615298  0.6167536425380729  1.0000
  H   H40       1.0  0.28796911005553394  0.4768085346571557  0.38324635754197867  1.0000
  H   H41       1.0  0.5015697172425829  0.5816945631986865  0.5811757556606084  1.0000
  H   H42       1.0  0.49843028256170874  0.4183054370737671  0.41882424441944305  1.0000
  H   H43       1.0  0.6095487096134792  0.3936260250755234  0.5139198034671885  1.0000
  H   H44       1.0  0.39045129019081254  0.6063739751969301  0.48608019661286295  1.0000
  H   H45       1.0  0.6003506259469834  0.2699967571064583  0.5718022503443762  1.0000
  H   H46       1.0  0.3996493738573082  0.7300032431659953  0.42819774973567526  1.0000
  H   H47       1.0  0.14615637636421197  0.9440727050174816  0.32732722105230205  1.0000
  H   H48       1.0  0.8538436247501519  0.05592729512155736  0.6726727785652075  1.0000
  H   H49       1.0  0.46827234514615196  0.9621276653313077  0.3868572841561324  1.0000
  H   H50       1.0  0.5317276561197618  0.037872334933957016  0.6131427159179131  1.0000
  H   H51       1.0  0.553246970497319  0.12968509919763918  0.48300046687306347  1.0000
  H   H52       1.0  0.4467530291554229  0.8703149009485888  0.5169995327504521  1.0000
  H   H53       1.0  0.38569629416452456  0.5880510579737048  0.9792625764553511  1.0000
  H   H54       1.0  0.6143037053701447  0.4119489412023553  0.020737423629683446  1.0000
  H   H55       1.0  0.4333902641652076  0.34737337250509326  0.7833587824636817  1.0000
  H   H56       1.0  0.5666097354875341  0.6526266276411345  0.21664121715983387  1.0000
  H   H57       1.0  0.5430556245637388  0.4095596289062133  0.8936601691117069  1.0000
  H   H58       1.0  0.4569443767021749  0.5904403713590514  0.10633983096233862  1.0000
  H   H59       1.0  0.10962537260834995  0.2860272248728874  0.8625684695786257  1.0000
  H   H60       1.0  0.8903746269263191  0.7139727743031727  0.1374315305064088  1.0000
  H   H61       1.0  0.0029651723970834337  0.23008707490474933  0.7516673554634149  1.0000
  H   H62       1.0  0.9970348274072083  0.7699129253677044  0.2483326446166365  1.0000
  H   H63       1.0  0.5631868129538944  0.3240046630975195  0.6846432279022301  1.0000
  H   H64       1.0  0.4368131883120193  0.6759953371677453  0.31535677217181546  1.0000
  H   H65       1.0  0.032759951374789646  0.3837240049878791  0.9556127399460342  1.0000
  H   H66       1.0  0.9672400482779522  0.6162759951583487  0.04438725967748127  1.0000
  C   C1        1.0  0.6727420978182281  0.6986937407914368  0.9934244605795823  1.0000
  C   C2        1.0  0.3272579031780631  0.30130625837743447  0.006575539499446222  1.0000
  C   C3        1.0  0.8195409449299125  0.816062176286369  0.96984404314862  1.0000
  C   C4        1.0  0.18045905472282928  0.18393782385985896  0.030155956474895426  1.0000
  C   C5        1.0  0.7315376218183695  0.9521271837524503  0.9572129856821743  1.0000
  C   C6        1.0  0.26846237798592204  0.04787281652000327  0.042787014397877014  1.0000
  C   C7        1.0  0.5320180189402629  0.9079922739016106  0.920869001450771  1.0000
  C   C8        1.0  0.4679819808640288  0.09200772637084303  0.07913099862928044  1.0000
  C   C9        1.0  0.41234991440108537  0.7714797073158006  0.9285980470548134  1.0000
  C   C10       1.0  0.5876500865952059  0.2285202918530706  0.07140195302421502  1.0000
  C   C11       1.0  0.22419671407420197  0.726026985499713  0.8971560052990242  1.0000
  C   C12       1.0  0.7758032857300897  0.2739730147727407  0.10284399478102728  1.0000
  C   C13       1.0  0.15024083376329148  0.8187729997315313  0.8579245416553044  1.0000
  C   C14       1.0  0.8497591658894504  0.18122700041469658  0.14207545796821103  1.0000
  C   C15       1.0  0.26589851500708345  0.9558537115873282  0.8500853811417666  1.0000
  C   C16       1.0  0.7341014862588303  0.04414628867793653  0.149914618932279  1.0000
  C   C17       1.0  0.4557759096900976  0.9974316014198339  0.881332573392411  1.0000
  C   C18       1.0  0.544224090114194  0.0025683988526198137  0.11866742668764049  1.0000
  C   C19       1.0  0.8674123252682348  0.8649768112697328  0.7966045646153804  1.0000
  C   C20       1.0  0.13258767584612913  0.13502318886930623  0.2033954350021291  1.0000
  C   C21       1.0  0.6609243546803699  0.7846172446144125  0.7715063320342462  1.0000
  C   C22       1.0  0.3390756464339939  0.21538275552462643  0.2284936675832633  1.0000
  C   C23       1.0  0.6645082506287777  0.6546705427161507  0.7241010524455638  1.0000
  C   C24       1.0  0.33549174890589145  0.3453294564599095  0.2758989476394707  1.0000
  C   C25       1.0  0.45340067860812117  0.5831924094212448  0.6983951497407379  1.0000
  C   C26       1.0  0.5465993211961705  0.4168075908512089  0.3016048503393135  1.0000
  C   C27       1.0  0.2298378052422508  0.39294834843981374  0.6337390157619944  1.0000
  C   C28       1.0  0.7701621945620408  0.6070516518326399  0.366260984318057  1.0000
  C   C29       1.0  0.20616242463481757  0.26366164218191085  0.5847744907785987  1.0000
  C   C30       1.0  0.7938375748998516  0.7363383569941493  0.41522550930643576  1.0000
  C   C31       1.0  0.5530578226556211  0.4883872023829809  0.6013432451578092  1.0000
  C   C32       1.0  0.4469421771486706  0.5116127978894728  0.39865675492224223  1.0000
  C   C33       1.0  0.530221288217685  0.35754574568939257  0.5530782220420887  1.0000
  C   C34       1.0  0.4697787115866066  0.642454254583061  0.44692177803796274  1.0000
  C   C35       1.0  0.2744521616220881  0.20854816108133567  0.4791187642335773  1.0000
  C   C36       1.0  0.7255478377610312  0.7914518379684987  0.520881235394921  1.0000
  C   C37       1.0  0.09130664782526396  0.20028594888666632  0.4433615649370109  1.0000
  C   C38       1.0  0.9086933519790277  0.7997140513857873  0.5566384351430406  1.0000
  C   C39       1.0  0.047040508321922664  0.10603851755866452  0.3889374363262372  1.0000
  C   C40       1.0  0.952959491482369  0.8939614827137892  0.6110625637538142  1.0000
  C   C41       1.0  0.18162144946623132  0.018575603245844164  0.3690972918222647  1.0000
  C   C42       1.0  0.8183785516481326  0.9814243968931948  0.6309027077952449  1.0000
  C   C43       1.0  0.3632842832235563  0.029128105243803687  0.403273319637524  1.0000
  C   C44       1.0  0.6367157165807352  0.97087189502865  0.5967266804425274  1.0000
  C   C45       1.0  0.40981662500207955  0.12295543045526526  0.4572237324265207  1.0000
  C   C46       1.0  0.5901833745325896  0.8770445687207948  0.5427762676585137  1.0000
  C   C47       1.0  0.711716528269299  0.28645240158868873  0.75953148833909  1.0000
  C   C48       1.0  0.2882834715349927  0.7135475986837648  0.2404685117409614  1.0000
  C   C49       1.0  0.5830289910552583  0.33567150702184523  0.8004521857445891  1.0000
  C   C50       1.0  0.4169710102106555  0.6643284932434195  0.19954781432945645  1.0000
  C   C51       1.0  0.6441482643715724  0.37076317520568186  0.8624242627636851  1.0000
  C   C52       1.0  0.3558517352811694  0.629236824940546  0.1375757368598304  1.0000
  C   C53       1.0  0.8344950078415138  0.353542899417383  0.8853771873401086  1.0000
  C   C54       1.0  0.16550499196277788  0.6464571008550707  0.11462281273994274  1.0000
  C   C55       1.0  0.9615974511944194  0.3000741164604515  0.845023043875016  1.0000
  C   C56       1.0  0.038402548609872224  0.6999258838120023  0.15497695620503543  1.0000
  C   C57       1.0  0.9009497519589913  0.26808664294237633  0.7828278472425892  1.0000
  C   C58       1.0  0.09905024757567775  0.7319133562336838  0.21717215284244518  1.0000
  N   N1        1.0  0.4813086390854965  0.6816967867128992  0.9703247186548355  1.0000
  N   N2        1.0  0.5186913621804173  0.31830321355236546  0.0296752814192101  1.0000
  N   N3        1.0  0.4416104605099097  0.4510969096391596  0.6543497892915546  1.0000
  N   N4        1.0  0.558389540756004  0.548903090626105  0.34565021078249086  1.0000
  N   N5        1.0  0.3191919229100915  0.30644810656500854  0.532859122600942  1.0000
  N   N6        1.0  0.6808080768942002  0.6935518937074451  0.4671408774791094  1.0000
  O   O1        1.0  0.7245196466130819  0.6142258002346734  0.030754490304132315  1.0000
  O   O2        1.0  0.27548035319120984  0.38577420003778023  0.9692455097759192  1.0000
  O   O3        1.0  0.9621003629730308  0.7661234031268437  0.8304758627408901  1.0000
  O   O4        1.0  0.037899636831260845  0.2338765971456099  0.16952413733916116  1.0000
  O   O5        1.0  0.6590510034011509  0.25712912216720035  0.6980532911177203  1.0000
  O   O6        1.0  0.34094899640314086  0.7428708781052533  0.3019467089623311  1.0000
  O   O7        1.0  0.8881606588833336  0.38893093801713446  0.9463398678659901  1.0000
  O   O8        1.0  0.11183934092095801  0.6110690622553192  0.05366013221406127  1.0000
  Cl  Cl1       1.0  0.9314276642808321  0.3164090341751648  0.4646415447546989  1.0000
  Cl  Cl2       1.0  0.06857233698508163  0.6835909660901  0.5353584553193467  1.0000
  Cl  Cl3       1.0  0.8280997886949281  0.10048565761377423  0.34374619138416845  1.0000
  Cl  Cl4       1.0  0.17190021110936363  0.8995143426586795  0.656253808695883  1.0000
