data_image0
_chemical_formula_structural       H112C104N8O16S4
_chemical_formula_sum              "H112 C104 N8 O16 S4"
_cell_length_a       7.329092746900284
_cell_length_b       30.925288349218654
_cell_length_c       10.393999048110205
_cell_angle_alpha    90.0
_cell_angle_beta     96.21603569027546
_cell_angle_gamma    90.0

_space_group_name_H-M_alt    "P 1"
_space_group_IT_number       1

loop_
  _space_group_symop_operation_xyz
  'x, y, z'

loop_
  _atom_site_type_symbol
  _atom_site_label
  _atom_site_symmetry_multiplicity
  _atom_site_fract_x
  _atom_site_fract_y
  _atom_site_fract_z
  _atom_site_occupancy
  H   H1        1.0  0.9671420127725489  0.4229935046128844  0.7662192738313229  1.0000
  H   H2        1.0  0.03285798776374048  0.9229935044638372  0.7337807260146302  1.0000
  H   H3        1.0  0.03285798696506913  0.5770064954123812  0.23378072595873323  1.0000
  H   H4        1.0  0.9671420133463628  0.07700649556142841  0.2662192738766627  1.0000
  H   H5        1.0  0.6060933166530383  0.4097985883556101  0.710765318201262  1.0000
  H   H6        1.0  0.39390668388325106  0.9097985882065629  0.7892346816446912  1.0000
  H   H7        1.0  0.3939066830845797  0.5902014116696556  0.2892346815887941  1.0000
  H   H8        1.0  0.6060933158543669  0.09020141181870268  0.21076531814536503  1.0000
  H   H9        1.0  0.8068239793335606  0.3709264531494602  0.5678721927831537  1.0000
  H   H10       1.0  0.19317601983024346  0.870926453000413  0.9321278069615626  1.0000
  H   H11       1.0  0.1931760204040574  0.6290735468758054  0.4321278070069024  1.0000
  H   H12       1.0  0.8068239799073745  0.1290735470248526  0.06787219282849351  1.0000
  H   H13       1.0  0.32091570911898404  0.31438971725046655  0.3601411931238673  1.0000
  H   H14       1.0  0.6790842898250296  0.8143897171014194  0.1398588075727658  1.0000
  H   H15       1.0  0.6790842906237008  0.6856102827747991  0.6398588076286628  1.0000
  H   H16       1.0  0.32091570991765533  0.18561028292384624  0.8601411931797642  1.0000
  H   H17       1.0  0.12686617848734064  0.35276651544222815  0.5060075819341652  1.0000
  H   H18       1.0  0.8731338220540155  0.8527665156165409  0.993992418874262  1.0000
  H   H19       1.0  0.8731338212553442  0.6472334845830374  0.4939924188183649  1.0000
  H   H20       1.0  0.1268661790611546  0.1472334844087247  0.006007581979504941  1.0000
  H   H21       1.0  0.7931749411924139  0.24594044505302615  0.6378223935174538  1.0000
  H   H22       1.0  0.2068250579764571  0.7459404452273389  0.8621776071897364  1.0000
  H   H23       1.0  0.20682505855027103  0.7540595549722394  0.36217760723507625  1.0000
  H   H24       1.0  0.7931749417662277  0.2540595547979267  0.13782239356279363  1.0000
  H   H25       1.0  0.8803380295547345  0.2967165187396495  0.5985401943967952  1.0000
  H   H26       1.0  0.11966196960906944  0.7967165189139623  0.901459805347921  1.0000
  H   H27       1.0  0.11966197018288342  0.7032834812856161  0.401459805393261  1.0000
  H   H28       1.0  0.8803380301285486  0.20328348111130337  0.09854019444213499  1.0000
  H   H29       1.0  0.11612383484722437  0.2605428275724897  0.4778461839514121  1.0000
  H   H30       1.0  0.8838761654692745  0.7605428277468025  0.022153816846457796  1.0000
  H   H31       1.0  0.8838761648954605  0.7394571724527759  0.522153816801118  1.0000
  H   H32       1.0  0.1161238342734104  0.23945717227846314  0.9778461839060724  1.0000
  H   H33       1.0  0.03231644354827248  0.20952540480236823  0.519672529341334  1.0000
  H   H34       1.0  0.9676835569880169  0.709525404976681  0.9803274705046192  1.0000
  H   H35       1.0  0.9676835575618309  0.7904745952228974  0.4803274705499589  1.0000
  H   H36       1.0  0.03231644274960114  0.2904745950485846  0.019672529285437043  1.0000
  H   H37       1.0  0.1936622615013463  0.27884460583268494  0.7135230606775667  1.0000
  H   H38       1.0  0.8063377376624576  0.7788446056836378  0.7864769390671497  1.0000
  H   H39       1.0  0.8063377382362718  0.7211553941925807  0.2864769391124895  1.0000
  H   H40       1.0  0.1936622620751603  0.22115539434162784  0.2135230607229065  1.0000
  H   H41       1.0  0.30363290657639147  0.22998288842728598  0.6761427360759954  1.0000
  H   H42       1.0  0.6963670939649647  0.7299828882782388  0.8238572647324316  1.0000
  H   H43       1.0  0.6963670945387787  0.7700171115979797  0.32385726477777144  1.0000
  H   H44       1.0  0.30363290577772006  0.27001711174702686  0.17614273602009842  1.0000
  H   H45       1.0  0.10212713785109773  0.22846530581107777  0.7576517591908533  1.0000
  H   H46       1.0  0.8978728626851916  0.7284653059853906  0.7423482406551001  1.0000
  H   H47       1.0  0.8978728618865202  0.7715346938908278  0.24234824059920299  1.0000
  H   H48       1.0  0.10212713705242638  0.27153469403987507  0.25765175913495614  1.0000
  H   H49       1.0  0.4799567717629691  0.24152586891525993  0.3579224856256482  1.0000
  H   H50       1.0  0.520043228548463  0.7415258687662128  0.14207751420974776  1.0000
  H   H51       1.0  0.5200432279746489  0.7584741311100056  0.642077514164408  1.0000
  H   H52       1.0  0.47995677256164043  0.25847413125905283  0.8579224856815453  1.0000
  H   H53       1.0  0.5083912316337088  0.23940496548957996  0.529939571601376  1.0000
  H   H54       1.0  0.4916087675300953  0.7394049656638927  0.9700604281433405  1.0000
  H   H55       1.0  0.4916087681039092  0.7605950345356858  0.47006042818868016  1.0000
  H   H56       1.0  0.5083912322075227  0.2605950343613729  0.029939571646715787  1.0000
  H   H57       1.0  0.7367560661967719  0.17827261520551976  0.5148667328552774  1.0000
  H   H58       1.0  0.26324393433951737  0.6782726153798325  0.9851332669906757  1.0000
  H   H59       1.0  0.263243933540846  0.8217273848197459  0.4851332669347786  1.0000
  H   H60       1.0  0.7367560653981006  0.32172738464543305  0.014866732799380517  1.0000
  H   H61       1.0  0.6877405582618757  0.17973250167416574  0.344430585037949  1.0000
  H   H62       1.0  0.3122594420495562  0.6797325018484786  0.15556941479744696  1.0000
  H   H63       1.0  0.31225944147574225  0.8202674980277399  0.6555694147521071  1.0000
  H   H64       1.0  0.6877405576880617  0.32026749817678707  0.8444305849926094  1.0000
  H   H65       1.0  0.41507265645394226  0.15970163816192137  0.5431234109572316  1.0000
  H   H66       1.0  0.5849273427098618  0.6597016380128742  0.9568765887874847  1.0000
  H   H67       1.0  0.5849273432836757  0.8402983618633443  0.4568765888328245  1.0000
  H   H68       1.0  0.4150726570277562  0.34029836201239144  0.04312341100257153  1.0000
  H   H69       1.0  0.5005840761467536  0.1221074509429888  0.4349900416825848  1.0000
  H   H70       1.0  0.4994159241646784  0.6221074507939417  0.06500995815281117  1.0000
  H   H71       1.0  0.4994159235908644  0.8778925490822768  0.5650099581074713  1.0000
  H   H72       1.0  0.500584076945425  0.377892549231324  0.9349900417384818  1.0000
  H   H73       1.0  0.3503882463143099  0.16366984918114377  0.37336454599165586  1.0000
  H   H74       1.0  0.6496117539971219  0.6636698490320966  0.12663545384374006  1.0000
  H   H75       1.0  0.6496117534233081  0.8363301508441218  0.6266354537984004  1.0000
  H   H76       1.0  0.35038824574049593  0.33633015099316904  0.873364545946316  1.0000
  H   H77       1.0  0.048034865887341856  0.3766346201358631  0.9411029792812657  1.0000
  H   H78       1.0  0.9519651346489476  0.8766346199868159  0.5588970205646874  1.0000
  H   H79       1.0  0.9519651338502761  0.6233653798894025  0.05889702050879037  1.0000
  H   H80       1.0  0.048034865088670504  0.12336538003844971  0.44110297922536884  1.0000
  H   H81       1.0  0.061666848107040484  0.36086737733787255  0.1777933283238259  1.0000
  H   H82       1.0  0.9383331522043915  0.8608673775121852  0.32220667151157006  1.0000
  H   H83       1.0  0.9383331516305775  0.6391326226873931  0.8222066714662302  1.0000
  H   H84       1.0  0.06166684753322652  0.13913262251308034  0.677793328278486  1.0000
  H   H85       1.0  0.9265492131936144  0.4111632954368641  0.3254298934358195  1.0000
  H   H86       1.0  0.07345078574533231  0.9111632952878169  0.17457010629833966  1.0000
  H   H87       1.0  0.07345078654400368  0.5888367045884015  0.6745701063542366  1.0000
  H   H88       1.0  0.9265492139922856  0.08883670473744872  0.8254298934917166  1.0000
  H   H89       1.0  0.7723859921292486  0.4794190942563869  0.23938260379147414  1.0000
  H   H90       1.0  0.22761400680969807  0.9794190941073397  0.260617395942685  1.0000
  H   H91       1.0  0.2276140076083694  0.5205809057688788  0.760617395998582  1.0000
  H   H92       1.0  0.77238599292792  0.02058090591792593  0.7393826038473712  1.0000
  H   H93       1.0  0.6727260705750997  0.5260335702063395  0.051955568462637894  1.0000
  H   H94       1.0  0.32727392973633224  0.02603357035538656  0.44804443137275807  1.0000
  H   H95       1.0  0.32727392916251835  0.4739664294955663  0.9480444313274183  1.0000
  H   H96       1.0  0.6727260700012857  0.973966429669879  0.5519555684172981  1.0000
  H   H97       1.0  0.5598485107042037  0.5697660739983104  0.8536877095787325  1.0000
  H   H98       1.0  0.4401514884596002  0.06976607382399756  0.6463122901659838  1.0000
  H   H99       1.0  0.4401514890334142  0.43023392602695526  0.14631229021132364  1.0000
  H   H100      1.0  0.5598485112780177  0.930233926201268  0.35368770962407237  1.0000
  H   H101      1.0  0.5379685968004811  0.5789440340158495  0.6152289704297567  1.0000
  H   H102      1.0  0.46203140373580814  0.07894403384153677  0.8847710294161965  1.0000
  H   H103      1.0  0.4620314043096221  0.4210559660094161  0.3847710294615362  1.0000
  H   H104      1.0  0.5379685960018098  0.9210559661837288  0.11522897037385972  1.0000
  H   H105      1.0  0.6875159143686133  0.5263747550606519  0.4792732029420679  1.0000
  H   H106      1.0  0.3124840859428188  0.02637475520969905  0.0207267968933281  1.0000
  H   H107      1.0  0.31248408536900485  0.4736252449646137  0.5207267968479883  1.0000
  H   H108      1.0  0.6875159137947991  0.9736252448155666  0.979273202896728  1.0000
  H   H109      1.0  0.858634592046773  0.4631018620837481  0.5801287926293734  1.0000
  H   H110      1.0  0.14136540711703108  0.9631018622580609  0.919871207115343  1.0000
  H   H111      1.0  0.14136540769084505  0.5368981379415175  0.4198712071606828  1.0000
  H   H112      1.0  0.858634592620587  0.036898137767204686  0.08012879267471322  1.0000
  C   C1        1.0  0.23703205303461863  0.40888584828084495  0.6992814119973623  1.0000
  C   C2        1.0  0.7629679475016707  0.9088858481317978  0.8007185878485907  1.0000
  C   C3        1.0  0.7629679467029994  0.5911141517444206  0.30071858779269384  1.0000
  C   C4        1.0  0.2370320522359473  0.09111415189346785  0.19928141194146534  1.0000
  C   C5        1.0  0.355974459668716  0.383496395120909  0.6170390487982016  1.0000
  C   C6        1.0  0.6440255394950881  0.8834963949718618  0.8829609509465147  1.0000
  C   C7        1.0  0.644025540068902  0.6165036049043566  0.38296095099185457  1.0000
  C   C8        1.0  0.35597446024252993  0.1165036050534038  0.11703904884354144  1.0000
  C   C9        1.0  0.5468341494443485  0.38847125544436617  0.6342617171710854  1.0000
  C   C10       1.0  0.45316584971945556  0.8884712556186789  0.8657382825736311  1.0000
  C   C11       1.0  0.45316585029326945  0.6115287445808995  0.36573828261897084  1.0000
  C   C12       1.0  0.5468341500181625  0.11152874440658668  0.13426171721642516  1.0000
  C   C13       1.0  0.6581669799490425  0.36678803741167343  0.554929889786134  1.0000
  C   C14       1.0  0.3418330205872469  0.8667880375859862  0.9450701100598192  1.0000
  C   C15       1.0  0.3418330197885755  0.6332119626135922  0.44507011000392216  1.0000
  C   C16       1.0  0.6581669805228565  0.13321196243927938  0.05492988983147377  1.0000
  C   C17       1.0  0.5744428017655325  0.3400361342230035  0.45693615734330506  1.0000
  C   C18       1.0  0.42555719854589946  0.8400361343973163  0.04306384249209094  1.0000
  C   C19       1.0  0.4255571979720854  0.6599638654789022  0.5430638424467511  1.0000
  C   C20       1.0  0.5744428011917186  0.15996386562794934  0.9569361572979651  1.0000
  C   C21       1.0  0.38363893783926145  0.3347004578620693  0.4381987710050401  1.0000
  C   C22       1.0  0.6163610610996851  0.834700458036382  0.06180122872911901  1.0000
  C   C23       1.0  0.6163610618983566  0.6652995421631964  0.561801228785016  1.0000
  C   C24       1.0  0.3836389386379328  0.16529954198888355  0.9381987710609372  1.0000
  C   C25       1.0  0.2752784367183884  0.3563095896009132  0.5192412582600795  1.0000
  C   C26       1.0  0.7247215638229677  0.8563095894518661  0.9807587425483477  1.0000
  C   C27       1.0  0.7247215643967817  0.6436904104243525  0.4807587425936874  1.0000
  C   C28       1.0  0.27527843591971707  0.14369041057339962  0.019241258204182467  1.0000
  C   C29       1.0  0.8626080352433555  0.26311833953217084  0.5645813419118734  1.0000
  C   C30       1.0  0.1373919652929339  0.7631183397064836  0.9354186579340797  1.0000
  C   C31       1.0  0.13739196449426253  0.7368816604930948  0.4354186578781828  1.0000
  C   C32       1.0  0.8626080344446841  0.23688166031878202  0.06458134185597637  1.0000
  C   C33       1.0  0.050322997804003455  0.24322267314251383  0.5528261743370633  1.0000
  C   C34       1.0  0.949677002732286  0.7432226729934667  0.94717382550889  1.0000
  C   C35       1.0  0.9496770019336146  0.7567773268827518  0.44717382545299295  1.0000
  C   C36       1.0  0.050322998377817424  0.25677732703179895  0.052826174382403036  1.0000
  C   C37       1.0  0.16955913804854178  0.2451525507018126  0.6822263086781561  1.0000
  C   C38       1.0  0.8304408611152622  0.7451525508761254  0.8177736910665601  1.0000
  C   C39       1.0  0.8304408616890763  0.754847449323453  0.3177736911119  1.0000
  C   C40       1.0  0.16955913862235572  0.25484744914914026  0.182226308723496  1.0000
  C   C41       1.0  0.5766000659436631  0.23330677109700396  0.44226107399743403  1.0000
  C   C42       1.0  0.42339993299528356  0.7333067712713168  0.05773892573672514  1.0000
  C   C43       1.0  0.4233999337939549  0.7666932289282616  0.5577389257926221  1.0000
  C   C44       1.0  0.5766000667423344  0.26669322875394885  0.9422610740533309  1.0000
  C   C45       1.0  0.6290442025859865  0.18563707458996245  0.43598310443241667  1.0000
  C   C46       1.0  0.37095579772544546  0.6856370744409153  0.0640168954029793  1.0000
  C   C47       1.0  0.37095579715163146  0.8143629254353032  0.5640168953576394  1.0000
  C   C48       1.0  0.6290442033846579  0.3143629255843503  0.9359831044883137  1.0000
  C   C49       1.0  0.46448606412931975  0.15617566586479467  0.4476242086040136  1.0000
  C   C50       1.0  0.535513934809627  0.6561756657157475  0.05237579113014563  1.0000
  C   C51       1.0  0.5355139356082983  0.843824334160471  0.5523757911860426  1.0000
  C   C52       1.0  0.46448606492799105  0.3438243343095181  0.9476242086599105  1.0000
  C   C53       1.0  0.8967958226557916  0.4362619380504781  0.9569114409036172  1.0000
  C   C54       1.0  0.10320417788049774  0.9362619382247909  0.543088558942336  1.0000
  C   C55       1.0  0.10320417708182637  0.5637380616514276  0.043088558886438914  1.0000
  C   C56       1.0  0.8967958218571203  0.06373806180047474  0.4569114408477203  1.0000
  C   C57       1.0  0.9872900089888099  0.3983841906622441  0.007192293844414744  1.0000
  C   C58       1.0  0.012709991327688791  0.898384190513197  0.4928077069534552  1.0000
  C   C59       1.0  0.012709990753874825  0.6016158093630215  0.9928077069081153  1.0000
  C   C60       1.0  0.9872900097874813  0.1016158095120687  0.5071922939003116  1.0000
  C   C61       1.0  0.9950395305563401  0.3901242757629719  0.13778168251184944  1.0000
  C   C62       1.0  0.004960469755091792  0.8901242759372847  0.3622183173235465  1.0000
  C   C63       1.0  0.004960469181277824  0.6098757242622938  0.8622183172782066  1.0000
  C   C64       1.0  0.9950395313550116  0.10987572408798092  0.6377816825677465  1.0000
  C   C65       1.0  0.9168630399193078  0.41907094878639795  0.222877564912133  1.0000
  C   C66       1.0  0.08313695901963872  0.9190709486373508  0.27712243482202614  1.0000
  C   C67       1.0  0.08313695981831007  0.5809290512388676  0.7771224348779231  1.0000
  C   C68       1.0  0.9168630407179793  0.08092905138791483  0.72287756496803  1.0000
  C   C69       1.0  0.8309898570757243  0.4562750471607651  0.17636395181825723  1.0000
  C   C70       1.0  0.16901014323570765  0.956275047011718  0.32363604801713874  1.0000
  C   C71       1.0  0.16901014266189368  0.5437249528645005  0.8236360479717989  1.0000
  C   C72       1.0  0.8309898565019104  0.04372495301354771  0.6763639517729174  1.0000
  C   C73       1.0  0.8164439254890519  0.4657776162777132  0.041485018727566186  1.0000
  C   C74       1.0  0.18355607482238  0.9657776161286661  0.45851498110782984  1.0000
  C   C75       1.0  0.18355607424856607  0.5342223837475524  0.95851498106249  1.0000
  C   C76       1.0  0.816443924915238  0.03422238389659961  0.5414850186822264  1.0000
  C   C77       1.0  0.7283881114985342  0.5027808149893239  0.9874159382819837  1.0000
  C   C78       1.0  0.2716118876652698  0.0027808151383711443  0.5125840614627327  1.0000
  C   C79       1.0  0.2716118882390837  0.49721918503594165  0.012584061508072517  1.0000
  C   C80       1.0  0.7283881120723482  0.9972191848868945  0.48741593832732344  1.0000
  C   C81       1.0  0.7157160143296973  0.5103263388132238  0.8538275335396999  1.0000
  C   C82       1.0  0.28428398620659207  0.010326338962270936  0.6461724663062531  1.0000
  C   C83       1.0  0.2842839854079207  0.4896736608886819  0.14617246625035613  1.0000
  C   C84       1.0  0.7157160149035112  0.9896736610629947  0.3538275335850398  1.0000
  C   C85       1.0  0.6228489213731051  0.5465410093880996  0.7932260749458411  1.0000
  C   C86       1.0  0.37715107916318424  0.0465410095371468  0.706773924900112  1.0000
  C   C87       1.0  0.37715107836451284  0.453458990637166  0.20677392484421506  1.0000
  C   C88       1.0  0.6228489219469192  0.9534589904881189  0.293226074991181  1.0000
  C   C89       1.0  0.6120563824259027  0.5516265949523802  0.6613438756854501  1.0000
  C   C90       1.0  0.38794361811545347  0.05162659477806739  0.8386561251229769  1.0000
  C   C91       1.0  0.3879436173167821  0.4483734050728854  0.33865612506708  1.0000
  C   C92       1.0  0.6120563829997168  0.9483734049238383  0.16134387573078987  1.0000
  C   C93       1.0  0.6977018451147872  0.5215329062698133  0.5837504948040186  1.0000
  C   C94       1.0  0.30229815404901683  0.02153290641886043  0.9162495049406976  1.0000
  C   C95       1.0  0.30229815462283083  0.4784670937554524  0.4162495049860375  1.0000
  C   C96       1.0  0.6977018456886012  0.9784670936064053  0.08375049484935847  1.0000
  C   C97       1.0  0.7920684407038495  0.48643226152425095  0.6383823834823791  1.0000
  C   C98       1.0  0.2079315584599545  0.9864322613752038  0.8616176162623373  1.0000
  C   C99       1.0  0.20793155903376845  0.5135677385010146  0.3616176163076771  1.0000
  C   C100      1.0  0.7920684412776634  0.013567738650061806  0.1383823835277189  1.0000
  C   C101      1.0  0.8004709300503556  0.4800023758024247  0.7740522577866634  1.0000
  C   C102      1.0  0.19952906911344853  0.9800023756533776  0.7259477419580528  1.0000
  C   C103      1.0  0.19952906968726247  0.5199976242228408  0.22594774200339268  1.0000
  C   C104      1.0  0.8004709306241695  0.019997624371888036  0.2740522578320033  1.0000
  N   N1        1.0  0.7381479493491493  0.26180482841656544  0.4425708795176079  1.0000
  N   N2        1.0  0.2618520509673495  0.7618048282675183  0.05742912128026198  1.0000
  N   N3        1.0  0.2618520503935355  0.7381951716087002  0.5574291212349222  1.0000
  N   N4        1.0  0.7381479487753353  0.23819517175774735  0.9425708794722679  1.0000
  N   N5        1.0  0.8868560357023207  0.44485246910713394  0.82872441939163  1.0000
  N   N6        1.0  0.11314396346148338  0.9448524689580868  0.6712755803530862  1.0000
  N   N7        1.0  0.11314396403529735  0.5551475309181316  0.17127558039842614  1.0000
  N   N8        1.0  0.8868560362761346  0.055147530743818896  0.32872441943696984  1.0000
  O   O1        1.0  0.3058997330490669  0.4396312951547145  0.766757042393733  1.0000
  O   O2        1.0  0.6941002674872223  0.9396312950056673  0.73324295745222  1.0000
  O   O3        1.0  0.6941002680610364  0.5603687048705511  0.2332429574975599  1.0000
  O   O4        1.0  0.3058997322503956  0.06036870501959827  0.2667570423378361  1.0000
  O   O5        1.0  0.06695421338022912  0.39680827164575316  0.6911808839598026  1.0000
  O   O6        1.0  0.9330457871560602  0.8968082714967059  0.8088191158861505  1.0000
  O   O7        1.0  0.9330457863573889  0.6031917283795124  0.30881911583025357  1.0000
  O   O8        1.0  0.06695421395404309  0.10319172852855965  0.19118088400514244  1.0000
  O   O9        1.0  0.8907996873001637  0.3274138315433306  0.3675113307793734  1.0000
  O   O10       1.0  0.10920031301633507  0.8274138313942834  0.13248867001849646  1.0000
  O   O11       1.0  0.1092003124425211  0.6725861684819351  0.6324886699731567  1.0000
  O   O12       1.0  0.8907996867263497  0.17258616863098222  0.8675113307340335  1.0000
  O   O13       1.0  0.6052565891427966  0.29937846449324756  0.24117430762350306  1.0000
  O   O14       1.0  0.39474341116863537  0.7993784646675604  0.2588256922118929  1.0000
  O   O15       1.0  0.39474341196730667  0.7006215355320181  0.7588256922677898  1.0000
  O   O16       1.0  0.6052565885689827  0.20062153535770524  0.7411743075781633  1.0000
  S   S1        1.0  0.7109305638437142  0.30791649159321705  0.36431418690985184  1.0000
  S   S2        1.0  0.28906943646771766  0.8079164917675299  0.13568581292554413  1.0000
  S   S3        1.0  0.28906943589390377  0.6920835084320485  0.6356858128802043  1.0000
  S   S4        1.0  0.7109305632699002  0.19208350825773574  0.8643141868645119  1.0000
