data_image0
_chemical_formula_structural       H52C64N4O4S4I4
_chemical_formula_sum              "H52 C64 N4 O4 S4 I4"
_cell_length_a       12.759893047060523
_cell_length_b       8.305642664347557
_cell_length_c       13.907813906164478
_cell_angle_alpha    90.0
_cell_angle_beta     91.7181763487564
_cell_angle_gamma    90.0

_space_group_name_H-M_alt    "P 1"
_space_group_IT_number       1

loop_
  _space_group_symop_operation_xyz
  'x, y, z'

loop_
  _atom_site_type_symbol
  _atom_site_label
  _atom_site_symmetry_multiplicity
  _atom_site_fract_x
  _atom_site_fract_y
  _atom_site_fract_z
  _atom_site_occupancy
  H   H1        1.0  0.010258089970758551  0.4303162084424633  0.36996513144739235  1.0000
  H   H2        1.0  0.9897419098982464  0.9303162081807402  0.1300348679891944  1.0000
  H   H3        1.0  0.9897419102170332  0.5696837922380912  0.6300348685904882  1.0000
  H   H4        1.0  0.010258090289545338  0.06968379129581355  0.8699651320486861  1.0000
  H   H5        1.0  0.24801587901991667  0.8895957132512166  0.8782318931539026  1.0000
  H   H6        1.0  0.7519841206796564  0.3895957135129397  0.6217681067657305  1.0000
  H   H7        1.0  0.751984120384163  0.1104042862253372  0.12176810688378033  1.0000
  H   H8        1.0  0.2480158794848419  0.6104042859636141  0.37823189255280637  1.0000
  H   H9        1.0  0.4210937648344584  0.7178573713017259  0.4997253885620747  1.0000
  H   H10       1.0  0.5789062350578398  0.21785737035944822  0.00027461159385566486  1.0000
  H   H11       1.0  0.5789062353533333  0.28214262937882867  0.5002746114758059  1.0000
  H   H12       1.0  0.4210937643462398  0.7821426291171056  0.9997253884438273  1.0000
  H   H13       1.0  0.002319281876588068  0.5749875214954419  0.20900624866148249  1.0000
  H   H14       1.0  0.9976807180157102  0.07498752175716497  0.2909937514944479  1.0000
  H   H15       1.0  0.9976807183112035  0.4250124791851127  0.790993751376398  1.0000
  H   H16       1.0  0.00231928138836948  0.9250124789233897  0.709006248543235  1.0000
  H   H17       1.0  0.6870206032372633  0.9739725999439516  0.6219425739308473  1.0000
  H   H18       1.0  0.312979396485603  0.4739726002056748  0.8780574267081293  1.0000
  H   H19       1.0  0.3129793969505283  0.02602739953260214  0.37805742610703313  1.0000
  H   H20       1.0  0.6870206037021885  0.526027399270879  0.12194257332975125  1.0000
  H   H21       1.0  0.8528234319066746  0.7682108691466579  0.1754505186971317  1.0000
  H   H22       1.0  0.14717656798562354  0.26821086940838096  0.32454948145879864  1.0000
  H   H23       1.0  0.14717656749740493  0.2317891315338967  0.8245494813405511  1.0000
  H   H24       1.0  0.8528234322021682  0.7317891312721736  0.6754505185790819  1.0000
  H   H25       1.0  0.4299449471591029  0.993505039100813  0.8650487683286293  1.0000
  H   H26       1.0  0.5700550533241822  0.4935050393625361  0.6349512315912013  1.0000
  H   H27       1.0  0.5700550530053953  0.006494961579741595  0.13495123098990744  1.0000
  H   H28       1.0  0.42994494686360957  0.5064949613180185  0.3650487684466793  1.0000
  H   H29       1.0  0.667288941965113  0.9152002918003114  0.44305914165663457  1.0000
  H   H30       1.0  0.33271105792718525  0.4152002920620345  0.056940858499295796  1.0000
  H   H31       1.0  0.33271105822267877  0.08479970767624241  0.556940858381246  1.0000
  H   H32       1.0  0.6672889422606063  0.5847997074145194  0.9430591415385847  1.0000
  H   H33       1.0  0.5709074959255197  0.7718792198368201  0.4018010097546549  1.0000
  H   H34       1.0  0.42909250396677845  0.2718792200985432  0.0981989904012755  1.0000
  H   H35       1.0  0.4290925042622719  0.22812077963973373  0.5981989902832255  1.0000
  H   H36       1.0  0.5709074962210131  0.7281207793780107  0.901801009636605  1.0000
  H   H37       1.0  0.7219129086668133  0.8130527284766677  0.3012939701263493  1.0000
  H   H38       1.0  0.27808709122548486  0.31305272873839063  0.19870603002958112  1.0000
  H   H39       1.0  0.2780870915209783  0.18694727099988626  0.6987060299115312  1.0000
  H   H40       1.0  0.7219129089623069  0.6869472719421639  0.8012939700082995  1.0000
  H   H41       1.0  0.5917851806723098  0.023130349783124365  0.7707064118922216  1.0000
  H   H42       1.0  0.40821481902726325  0.5231303495214013  0.7292935880274115  1.0000
  H   H43       1.0  0.4082148195154818  0.9768696496934294  0.22929358814565898  1.0000
  H   H44       1.0  0.5917851811605285  0.4768696499551526  0.2707064120104691  1.0000
  H   H45       1.0  0.16284917860537337  0.7420027599374351  0.7413851925902367  1.0000
  H   H46       1.0  0.8371508218779117  0.24200276019915826  0.758614807329594  1.0000
  H   H47       1.0  0.8371508215824182  0.2579972395391186  0.25861480744764387  1.0000
  H   H48       1.0  0.1628491783098799  0.7579972392773956  0.24138519270828654  1.0000
  H   H49       1.0  0.2591521234376816  0.6966453053461001  0.5906884784298844  1.0000
  H   H50       1.0  0.7408478770456034  0.19664530560782317  0.9093115214899464  1.0000
  H   H51       1.0  0.74084787675011  0.30335469413045374  0.40931152160799616  1.0000
  H   H52       1.0  0.25915212314218816  0.8033546950727314  0.09068847854793424  1.0000
  C   C1        1.0  0.9483980997968333  0.5133211832362058  0.3480048253842508  1.0000
  C   C2        1.0  0.051601900072171566  0.01332118229392804  0.15199517405233592  1.0000
  C   C3        1.0  0.05160190039095835  0.4866788174443488  0.6519951746536297  1.0000
  C   C4        1.0  0.9483981000923266  0.9866788171826258  0.848004825266201  1.0000
  C   C5        1.0  0.40117406488464924  0.8124839609302045  0.6432064008303228  1.0000
  C   C6        1.0  0.5988259348149239  0.3124839611919276  0.8567935990893102  1.0000
  C   C7        1.0  0.5988259345194303  0.18751603854634932  0.3567935992073601  1.0000
  C   C8        1.0  0.4011740653728678  0.6875160382846263  0.1432064009485703  1.0000
  C   C9        1.0  0.29149826790064637  0.8688250568466828  0.813103985973031  1.0000
  C   C10       1.0  0.7085017317989266  0.36882505710840585  0.6868960139466019  1.0000
  C   C11       1.0  0.7085017322871453  0.1311749438338718  0.18689601406484946  1.0000
  C   C12       1.0  0.29149826838886495  0.6311749435721487  0.31310398609127865  1.0000
  C   C13       1.0  0.4502802137196286  0.8989727949711316  0.7218235638807273  1.0000
  C   C14       1.0  0.5497197859799444  0.3989727952328547  0.7781764360389055  1.0000
  C   C15       1.0  0.5497197856844509  0.10102720450542216  0.2781764361569555  1.0000
  C   C16       1.0  0.45028021420784725  0.601027204243699  0.2218235639989749  1.0000
  C   C17       1.0  0.7932042446233762  0.6424898356037315  0.39964656449395153  1.0000
  C   C18       1.0  0.20679575526892194  0.14248983586545455  0.10035343566197884  1.0000
  C   C19       1.0  0.20679575478070336  0.35751016387282236  0.6003534355437313  1.0000
  C   C20       1.0  0.7932042449188696  0.8575101636110992  0.8996465643759017  1.0000
  C   C21       1.0  0.4586230540570826  0.7843252127813191  0.5590527571004353  1.0000
  C   C22       1.0  0.5413769464262026  0.28432521304304226  0.9409472428193955  1.0000
  C   C23       1.0  0.5413769461307091  0.21567478789923542  0.4409472429374452  1.0000
  C   C24       1.0  0.45862305376158913  0.7156747876375124  0.05905275721848517  1.0000
  C   C25       1.0  0.5596309106212876  0.8416310829270569  0.5511471409390583  1.0000
  C   C26       1.0  0.4403690890782855  0.34163108318877994  0.9488528589805748  1.0000
  C   C27       1.0  0.440369088782792  0.15836891654949697  0.4488528590986246  1.0000
  C   C28       1.0  0.5596309111095062  0.6583689162877739  0.051147141057305744  1.0000
  C   C29       1.0  0.942575207307397  0.5960947996537626  0.26178879403167526  1.0000
  C   C30       1.0  0.057424792561607825  0.09609479871148494  0.23821120540491153  1.0000
  C   C31       1.0  0.05742479285710129  0.403905201026792  0.7382112052868616  1.0000
  C   C32       1.0  0.9425752076261837  0.9039052007650689  0.7617887946329691  1.0000
  C   C33       1.0  0.6073743130132229  0.928614000347903  0.6287370624190338  1.0000
  C   C34       1.0  0.3926256866863502  0.42861400060962607  0.871262937500599  1.0000
  C   C35       1.0  0.3926256863908567  0.07138600033265159  0.37126293761864904  1.0000
  C   C36       1.0  0.6073743135014414  0.5713860000709285  0.12873706253728137  1.0000
  C   C37       1.0  0.860440051495471  0.7044307992101176  0.24383015693532004  1.0000
  C   C38       1.0  0.13955994915724584  0.2044307994718407  0.25616984250146435  1.0000
  C   C39       1.0  0.13955994869232058  0.29556920026643624  0.7561698431025605  1.0000
  C   C40       1.0  0.8604400510072525  0.7955692000047131  0.7438301568170725  1.0000
  C   C41       1.0  0.3927331272903561  0.9256225593475994  0.8061130060681482  1.0000
  C   C42       1.0  0.607266872409217  0.42562255960932244  0.6938869938514848  1.0000
  C   C43       1.0  0.6072668728974355  0.07437744133295518  0.19388699396973239  1.0000
  C   C44       1.0  0.3927331269948626  0.5743774410712321  0.3061130061861981  1.0000
  C   C45       1.0  0.6214945330879645  0.8090481774329811  0.46303586691622545  1.0000
  C   C46       1.0  0.3785054668043336  0.30904817649070343  0.036964133239704995  1.0000
  C   C47       1.0  0.378505467099827  0.19095182324757348  0.5369641331216551  1.0000
  C   C48       1.0  0.621494532599746  0.6909518229858503  0.9630358667979778  1.0000
  C   C49       1.0  0.7862111673907455  0.7288950915245717  0.31366146838865244  1.0000
  C   C50       1.0  0.21378883250155267  0.22889509178629477  0.18633853176727794  1.0000
  C   C51       1.0  0.21378883279704616  0.27110490795198217  0.6863385316492281  1.0000
  C   C52       1.0  0.786211167686239  0.7711049076902591  0.8136614682706027  1.0000
  C   C53       1.0  0.5543037861907611  0.9560161724852807  0.711823403327832  1.0000
  C   C54       1.0  0.44569621350881194  0.456016171543003  0.7881765965918011  1.0000
  C   C55       1.0  0.44569621399703047  0.04398382819527391  0.2881765967100485  1.0000
  C   C56       1.0  0.5543037858952676  0.5439838279335508  0.21182340344588182  1.0000
  C   C57       1.0  0.24309523483011838  0.7850065556019405  0.735204766297703  1.0000
  C   C58       1.0  0.7569047648694547  0.2850065558636636  0.76479523362193  1.0000
  C   C59       1.0  0.7569047645739612  0.21499344507861404  0.26479523373997976  1.0000
  C   C60       1.0  0.24309523531833693  0.7149934448168909  0.2352047664159506  1.0000
  C   C61       1.0  0.2964961913187324  0.7582265713203181  0.651829272366016  1.0000
  C   C62       1.0  0.7035038083808407  0.2582265715820412  0.8481707275536171  1.0000
  C   C63       1.0  0.7035038088690592  0.24177342815623565  0.3481707276718647  1.0000
  C   C64       1.0  0.2964961910232389  0.7417734290985134  0.15182927248406572  1.0000
  N   N1        1.0  0.8737801961326054  0.5344179986280059  0.41449030807351783  1.0000
  N   N2        1.0  0.1262198037596927  0.034417997685728244  0.08550969208241253  1.0000
  N   N3        1.0  0.1262198032714741  0.4655820020525487  0.585509691964165  1.0000
  N   N4        1.0  0.873780196428099  0.9655820017908255  0.9144903079554679  1.0000
  O   O1        1.0  0.8754785297940733  0.4552628740255385  0.4969314998670042  1.0000
  O   O2        1.0  0.12452147009822491  0.9552628737638155  0.0030685002889262224  1.0000
  O   O3        1.0  0.12452147039371837  0.5447371254510153  0.5030685001708763  1.0000
  O   O4        1.0  0.8754785293058547  0.04473712571273838  0.9969314997487566  1.0000
  S   S1        1.0  0.7123500910225657  0.6478322084691653  0.4974138943365624  1.0000
  S   S2        1.0  0.2876499088697324  0.14783220752688764  0.002586105819367976  1.0000
  S   S3        1.0  0.2876499091652259  0.3521677922113893  0.5025861057013181  1.0000
  S   S4        1.0  0.7123500905343472  0.8521677919496662  0.997413894218315  1.0000
  I   I1        1.0  0.954785398891  0.15084750941406164  0.4995753423562662  1.0000
  I   I2        1.0  0.04521460100129808  0.6508475091523385  0.0004246577996642088  1.0000
  I   I3        1.0  0.04521460129679155  0.8491524912664928  0.5004246576816144  1.0000
  I   I4        1.0  0.9547853984027815  0.34915249152821604  0.9995753422380187  1.0000
