data_image0
_chemical_formula_structural       H44C32N4O8
_chemical_formula_sum              "H44 C32 N4 O8"
_cell_length_a       15.363087499514275
_cell_length_b       6.853813021525207
_cell_length_c       7.1905696435534106
_cell_angle_alpha    90.0
_cell_angle_beta     90.0
_cell_angle_gamma    90.0

_space_group_name_H-M_alt    "P 1"
_space_group_IT_number       1

loop_
  _space_group_symop_operation_xyz
  'x, y, z'

loop_
  _atom_site_type_symbol
  _atom_site_label
  _atom_site_symmetry_multiplicity
  _atom_site_fract_x
  _atom_site_fract_y
  _atom_site_fract_z
  _atom_site_occupancy
  H   H1        1.0  0.4967979854466953  0.9867631110973877  0.3929470431502139  1.0000
  H   H2        1.0  0.503202014584921  0.013236888680078262  0.8929470429031258  1.0000
  H   H3        1.0  0.9967979854625034  0.013236888680078262  0.3929470431502139  1.0000
  H   H4        1.0  0.003202014569112836  0.9867631110973877  0.8929470429031258  1.0000
  H   H5        1.0  0.3405922377364207  0.6544138475785094  0.45848158816675155  1.0000
  H   H6        1.0  0.6594077622951956  0.3455861521989565  0.9584815893103736  1.0000
  H   H7        1.0  0.8405922377522288  0.3455861521989565  0.45848158816675155  1.0000
  H   H8        1.0  0.15940776227938738  0.6544138475785094  0.9584815893103736  1.0000
  H   H9        1.0  0.14221607213192516  0.825011876198176  0.5560126719006728  1.0000
  H   H10       1.0  0.857783927899691  0.17498812357929003  0.056012672147761025  1.0000
  H   H11       1.0  0.6422160721477332  0.17498812357929003  0.5560126719006728  1.0000
  H   H12       1.0  0.35778392788388297  0.825011876198176  0.056012672147761025  1.0000
  H   H13       1.0  0.13216585013033325  0.7442099782968584  0.32355404861224313  1.0000
  H   H14       1.0  0.8678341499012829  0.25579002148060753  0.8235540497558653  1.0000
  H   H15       1.0  0.6321658501461415  0.25579002148060753  0.32355404861224313  1.0000
  H   H16       1.0  0.36783414988547486  0.7442099782968584  0.8235540497558653  1.0000
  H   H17       1.0  0.23232678653381664  0.852234293765453  0.39979498044043205  1.0000
  H   H18       1.0  0.7676732134977996  0.14776570601201297  0.8997949801933439  1.0000
  H   H19       1.0  0.7323267858987139  0.14776570601201297  0.39979498044043205  1.0000
  H   H20       1.0  0.2676732134819915  0.852234293765453  0.8997949801933439  1.0000
  H   H21       1.0  0.08616973183559974  0.43268112519067115  0.5597618046309523  1.0000
  H   H22       1.0  0.9138302681960165  0.5673188745867948  0.05976180487804049  1.0000
  H   H23       1.0  0.5861697318514079  0.5673188745867948  0.5597618046309523  1.0000
  H   H24       1.0  0.41383026818020835  0.43268112519067115  0.05976180487804049  1.0000
  H   H25       1.0  0.3118344994228188  0.0830789048682404  0.6839616197041107  1.0000
  H   H26       1.0  0.6881654999578866  0.9169210949092256  0.1839616199511989  1.0000
  H   H27       1.0  0.811834499438627  0.9169210949092256  0.6839616197041107  1.0000
  H   H28       1.0  0.18816549994207848  0.0830789048682404  0.1839616199511989  1.0000
  H   H29       1.0  0.4572226273021021  0.3492866324893214  0.42855373673526825  1.0000
  H   H30       1.0  0.5427773727295141  0.6507133672881447  0.9285537378788904  1.0000
  H   H31       1.0  0.9572226273179102  0.6507133672881447  0.42855373673526825  1.0000
  H   H32       1.0  0.04277737271370601  0.3492866324893214  0.9285537378788904  1.0000
  H   H33       1.0  0.45542257116098633  0.2293165300926527  0.6473213112083568  1.0000
  H   H34       1.0  0.5445774288706299  0.7706834696848133  0.14732131145544497  1.0000
  H   H35       1.0  0.9554225711767945  0.7706834696848133  0.6473213112083568  1.0000
  H   H36       1.0  0.04457742885482181  0.2293165300926527  0.14732131145544497  1.0000
  H   H37       1.0  0.45860500958695677  0.49099964639115934  0.6356519979050321  1.0000
  H   H38       1.0  0.5413949904446594  0.5090003533863067  0.13565199815212037  1.0000
  H   H39       1.0  0.9586050096027648  0.5090003533863067  0.6356519979050321  1.0000
  H   H40       1.0  0.0413949904288514  0.49099964639115934  0.13565199815212037  1.0000
  H   H41       1.0  0.14859177688548442  0.12442470159628408  0.6782699287771349  1.0000
  H   H42       1.0  0.8514082231461318  0.875575298181182  0.17826992902422314  1.0000
  H   H43       1.0  0.6485917769012925  0.875575298181182  0.6782699287771349  1.0000
  H   H44       1.0  0.3514082231303237  0.12442470159628408  0.17826992902422314  1.0000
  C   C1        1.0  0.45619151490360144  0.8758169373964331  0.46559860984053236  1.0000
  C   C2        1.0  0.5438084851280148  0.12418306238103285  0.9655986095934442  1.0000
  C   C3        1.0  0.9561915142684988  0.12418306238103285  0.46559860984053236  1.0000
  C   C4        1.0  0.043808485112206696  0.8758169373964331  0.9655986095934442  1.0000
  C   C5        1.0  0.33539633489446113  0.3671603970077381  0.5718196184479329  1.0000
  C   C6        1.0  0.6646036651371551  0.6328396027697278  0.07181961869502114  1.0000
  C   C7        1.0  0.8353963349102692  0.6328396027697278  0.5718196184479329  1.0000
  C   C8        1.0  0.164603665121347  0.3671603970077381  0.07181961869502114  1.0000
  C   C9        1.0  0.21090667290038165  0.5633866036136362  0.5039369089830977  1.0000
  C   C10       1.0  0.7890933271312346  0.4366133961638297  0.003936909230185906  1.0000
  C   C11       1.0  0.7109066729161898  0.4366133961638297  0.5039369089830977  1.0000
  C   C12       1.0  0.28909332711542646  0.5633866036136362  0.003936909230185906  1.0000
  C   C13       1.0  0.1782580702014868  0.7571543363821127  0.4404472256018524  1.0000
  C   C14       1.0  0.8217419291792186  0.24284566339535335  0.9404472253547641  1.0000
  C   C15       1.0  0.6782580702172949  0.24284566339535335  0.4404472256018524  1.0000
  C   C16       1.0  0.3217419291634105  0.7571543363821127  0.9404472253547641  1.0000
  C   C17       1.0  0.1562639209127658  0.4133146310095296  0.5634740640656316  1.0000
  C   C18       1.0  0.8437360791188504  0.5866853702269782  0.06347406431271982  1.0000
  C   C19       1.0  0.656263920928574  0.5866853702269782  0.5634740640656316  1.0000
  C   C20       1.0  0.3437360791030423  0.4133146310095296  0.06347406431271982  1.0000
  C   C21       1.0  0.2819612184163473  0.21668719227323002  0.6334044680428481  1.0000
  C   C22       1.0  0.7180387816152689  0.7833128075042359  0.13340446828993638  1.0000
  C   C23       1.0  0.7819612184321555  0.7833128075042359  0.6334044680428481  1.0000
  C   C24       1.0  0.2180387815994608  0.21668719227323002  0.13340446828993638  1.0000
  C   C25       1.0  0.4322322293751139  0.35772884557833906  0.5718374723880746  1.0000
  C   C26       1.0  0.5677677706565024  0.642271154199127  0.07183747124445235  1.0000
  C   C27       1.0  0.932232229390922  0.642271154199127  0.5718374723880746  1.0000
  C   C28       1.0  0.06776777064069422  0.35772884557833906  0.07183747124445235  1.0000
  C   C29       1.0  0.19176153687161795  0.23980199997260102  0.629031772754626  1.0000
  C   C30       1.0  0.8082384631599983  0.760197999804865  0.12903177300171412  1.0000
  C   C31       1.0  0.6917615368874261  0.760197999804865  0.629031772754626  1.0000
  C   C32       1.0  0.3082384631441901  0.23980199997260102  0.12903177300171412  1.0000
  N   N1        1.0  0.29796665287135343  0.5342268323487461  0.5097751877400022  1.0000
  N   N2        1.0  0.7020333471602629  0.4657731674287198  0.009775187987090372  1.0000
  N   N3        1.0  0.7979666528871615  0.4657731674287198  0.5097751877400022  1.0000
  N   N4        1.0  0.20203334714445467  0.5342268323487461  0.009775187987090372  1.0000
  O   O1        1.0  0.39103100924146483  0.8139127654169087  0.3702155478581072  1.0000
  O   O2        1.0  0.6089689907901514  0.1860872343605572  0.8702155490017294  1.0000
  O   O3        1.0  0.891031009257273  0.1860872343605572  0.3702155478581072  1.0000
  O   O4        1.0  0.10896899077434329  0.8139127654169087  0.8702155490017294  1.0000
  O   O5        1.0  0.4763193342634649  0.823218616014188  0.6274583897598387  1.0000
  O   O6        1.0  0.5236806657681513  0.1767813837632781  0.1274583900069269  1.0000
  O   O7        1.0  0.976319334279273  0.1767813837632781  0.6274583897598387  1.0000
  O   O8        1.0  0.023680665752343222  0.823218616014188  0.1274583900069269  1.0000
