data_image0
_chemical_formula_structural       H20C38N4O10S8
_chemical_formula_sum              "H20 C38 N4 O10 S8"
_cell_length_a       6.929018080636222
_cell_length_b       12.007054960411423
_cell_length_c       11.16711795889305
_cell_angle_alpha    90.0
_cell_angle_beta     103.94401967848567
_cell_angle_gamma    90.0

_space_group_name_H-M_alt    "P 1"
_space_group_IT_number       1

loop_
  _space_group_symop_operation_xyz
  'x, y, z'

loop_
  _atom_site_type_symbol
  _atom_site_label
  _atom_site_symmetry_multiplicity
  _atom_site_fract_x
  _atom_site_fract_y
  _atom_site_fract_z
  _atom_site_occupancy
  H   H1        1.0  0.6002264449940947  0.9189182190286181  0.08343460483220376  1.0000
  H   H2        1.0  0.3997735558161055  0.41891821904575066  0.916565395295708  1.0000
  H   H3        1.0  0.44007672704681516  0.06178844041658146  0.9091341350914706  1.0000
  H   H4        1.0  0.5599232737633851  0.5617884403994489  0.0908658650364412  1.0000
  H   H5        1.0  0.44257691510578984  0.5407178455838048  0.412425839611663  1.0000
  H   H6        1.0  0.5574230857044103  0.04071784560093725  0.5875741605162487  1.0000
  H   H7        1.0  0.608324431835787  0.40574242776957087  0.5919529165454795  1.0000
  H   H8        1.0  0.39167556748738724  0.9057424277524384  0.4080470833604848  1.0000
  H   H9        1.0  0.19563538732375735  0.07104251315684587  0.5183601413863154  1.0000
  H   H10       1.0  0.8043646119994168  0.5710425131397133  0.48163985851964897  1.0000
  H   H11       1.0  0.07104938696086534  0.4124897101187494  0.5945845867531662  1.0000
  H   H12       1.0  0.9289506123623089  0.9124897101016168  0.40541541315279817  1.0000
  H   H13       1.0  0.9607797245213668  0.4534560879376067  0.367912760449792  1.0000
  H   H14       1.0  0.039220276288833296  0.9534560879204742  0.6320872396781196  1.0000
  H   H15       1.0  0.867054469639214  0.44722306158378755  0.12224950759154099  1.0000
  H   H16       1.0  0.13294553117098626  0.947223061566655  0.8777504925363707  1.0000
  H   H17       1.0  0.7856510676890729  0.3945835040833076  0.8969959617463836  1.0000
  H   H18       1.0  0.21434893312112732  0.894583504066175  0.10300403838152798  1.0000
  H   H19       1.0  0.9639978405005272  0.05547855091829903  0.9905720666749664  1.0000
  H   H20       1.0  0.03600216030967298  0.5554785509011665  0.009427933452945358  1.0000
  C   C1        1.0  0.5598607878874827  0.00465542301457781  0.09718804397662723  1.0000
  C   C2        1.0  0.4401392114356914  0.5046554229974453  0.902811955929337  1.0000
  C   C3        1.0  0.4783750112240833  0.07786615394720939  0.007836292589918055  1.0000
  C   C4        1.0  0.5216249895861168  0.5778661539300768  0.9921637075379937  1.0000
  C   C5        1.0  0.5149066071025794  0.18538455494199957  0.21006859118805568  1.0000
  C   C6        1.0  0.4850933922205947  0.685384554924867  0.7899314087179087  1.0000
  C   C7        1.0  0.5155689286392358  0.2676906669118691  0.29687950576005545  1.0000
  C   C8        1.0  0.4844310706839384  0.7676906668947365  0.7031204941459089  1.0000
  C   C9        1.0  0.4784894420959688  0.4535860332077121  0.4023361384461017  1.0000
  C   C10       1.0  0.5215105572272053  0.9535860331905794  0.5976638614598626  1.0000
  C   C11       1.0  0.5596057710159832  0.3835112102995  0.4948391866653135  1.0000
  C   C12       1.0  0.440394229794217  0.8835112102823675  0.5051608134625982  1.0000
  C   C13       1.0  0.06857128297025332  0.09969599156053024  0.2546538831045176  1.0000
  C   C14       1.0  0.9314287163529208  0.5996959915433977  0.7453461168014467  1.0000
  C   C15       1.0  0.07209091340443034  0.17485885813985305  0.36061520726001023  1.0000
  C   C16       1.0  0.9279090859187439  0.6748588581227205  0.6393847926459542  1.0000
  C   C17       1.0  0.14056204435995645  0.15290669744190882  0.485075135690306  1.0000
  C   C18       1.0  0.8594379549632177  0.6529066974247763  0.5149248642156583  1.0000
  C   C19       1.0  0.1409794579105913  0.24113864719919548  0.5668469615777569  1.0000
  C   C20       1.0  0.8590205428996089  0.7411386471820629  0.43315303855015475  1.0000
  C   C21       1.0  0.07216826466137045  0.34807706667287486  0.5261728812213367  1.0000
  C   C22       1.0  0.9278317361488297  0.8480770666557423  0.47382711890657503  1.0000
  C   C23       1.0  0.00799679513333257  0.3698457385796656  0.4000262743419631  1.0000
  C   C24       1.0  0.9920032041898416  0.869845738562533  0.5999737255640013  1.0000
  C   C25       1.0  0.008271892217331383  0.2833091920721449  0.31651411899973586  1.0000
  C   C26       1.0  0.9917281071058428  0.7833091920550124  0.6834858809062285  1.0000
  C   C27       1.0  0.9548006160413717  0.2794390074054456  0.18203805185653446  1.0000
  C   C28       1.0  0.045199384768828496  0.7794390073883131  0.8179619482713771  1.0000
  C   C29       1.0  0.8848342484379249  0.3617736509345634  0.09394873876168394  1.0000
  C   C30       1.0  0.1151657508852493  0.8617736509174309  0.9060512611442803  1.0000
  C   C31       1.0  0.8379312654853476  0.3329549355092662  0.9691540344873983  1.0000
  C   C32       1.0  0.16206873532485253  0.8329549354921336  0.030845965640513413  1.0000
  C   C33       1.0  0.8659847041138011  0.22276588129387134  0.9347090569844098  1.0000
  C   C34       1.0  0.13401529520937316  0.7227658812767388  0.0652909429215546  1.0000
  C   C35       1.0  0.9443584344808171  0.13983892765844946  0.020758379800085897  1.0000
  C   C36       1.0  0.05564156484235695  0.6398389276413169  0.9792416201058785  1.0000
  C   C37       1.0  0.9863954833873901  0.1688050972268182  0.14424618489841248  1.0000
  C   C38       1.0  0.013604515935783934  0.6688050972096856  0.8557538150075518  1.0000
  N   N1        1.0  0.21964853554431057  0.22070700923227857  0.696879703364078  1.0000
  N   N2        1.0  0.7803514637788637  0.720707009215146  0.3031202965418864  1.0000
  N   N3        1.0  0.8025468111404636  0.19228516464797538  0.8056581879009993  1.0000
  N   N4        1.0  0.1974531896697367  0.6922851646308428  0.19434181222691238  1.0000
  O   O1        1.0  0.13207501363053223  0.0028031536551613085  0.2588455392626635  1.0000
  O   O2        1.0  0.867924987179668  0.5028031536380287  0.7411544608652482  1.0000
  O   O3        1.0  0.22390402668613943  0.2988006077950914  0.7714410509573859  1.0000
  O   O4        1.0  0.7760959726370347  0.7988006077779588  0.2285589489485784  1.0000
  O   O5        1.0  0.28173865786279817  0.1248546063079428  0.7294669606871741  1.0000
  O   O6        1.0  0.7182613414603761  0.6248546062908102  0.2705330392187903  1.0000
  O   O7        1.0  0.8564564311271107  0.10020675211090836  0.772204087851131  1.0000
  O   O8        1.0  0.14354356968308948  0.6002067520937758  0.22779591227678067  1.0000
  O   O9        1.0  0.6929634718087977  0.25817525031914906  0.7334838608850545  1.0000
  O   O10       1.0  0.3070365275143765  0.7581752503020165  0.2665161390209098  1.0000
  S   S1        1.0  0.6060015986312763  0.05154545823606299  0.24761476630945375  1.0000
  S   S2        1.0  0.3939984021789239  0.5515454582189304  0.7523852338184579  1.0000
  S   S3        1.0  0.42416343399974493  0.20952674559205947  0.05263040382893676  1.0000
  S   S4        1.0  0.5758365668104553  0.7095267455749269  0.9473695962989749  1.0000
  S   S5        1.0  0.4233135189760613  0.4006476788738847  0.25391867019199055  1.0000
  S   S6        1.0  0.576686481834139  0.9006476788567521  0.7460813299359211  1.0000
  S   S7        1.0  0.6013310138781043  0.247823481262556  0.45521998532214764  1.0000
  S   S8        1.0  0.39866898544506996  0.7478234812454234  0.5447800145838168  1.0000
