data_image0
_chemical_formula_structural       H76C54N6O18F6
_chemical_formula_sum              "H76 C54 N6 O18 F6"
_cell_length_a       7.892101666716624
_cell_length_b       10.535078765360078
_cell_length_c       17.269868428460196
_cell_angle_alpha    90.0
_cell_angle_beta     93.09712107893559
_cell_angle_gamma    90.0

_space_group_name_H-M_alt    "P 1"
_space_group_IT_number       1

loop_
  _space_group_symop_operation_xyz
  'x, y, z'

loop_
  _atom_site_type_symbol
  _atom_site_label
  _atom_site_symmetry_multiplicity
  _atom_site_fract_x
  _atom_site_fract_y
  _atom_site_fract_z
  _atom_site_occupancy
  H   H1        1.0  0.6130918670349504  0.562344829302993  0.28972624669271185  1.0000
  H   H2        1.0  0.3869081320560242  0.062344829557385  0.7102737535823395  1.0000
  H   H3        1.0  0.1578867013235862  0.6173611469698111  0.26020763888174414  1.0000
  H   H4        1.0  0.8421132990363311  0.11736114722420311  0.7397923614251093  1.0000
  H   H5        1.0  0.43298513694174195  0.6986023079580126  0.20594466079263124  1.0000
  H   H6        1.0  0.5670148634181753  0.19860230821240452  0.7940553395142221  1.0000
  H   H7        1.0  0.37624443730835166  0.5810263887277909  0.08329401471958564  1.0000
  H   H8        1.0  0.6237555630515657  0.08102638898218281  0.9167059855872678  1.0000
  H   H9        1.0  0.18418373249713524  0.6054029601535692  0.12843177960510732  1.0000
  H   H10       1.0  0.8158162678638151  0.10540296040796111  0.8715682201227286  1.0000
  H   H11       1.0  0.2807375558084018  0.45400206458129155  0.13284646551089582  1.0000
  H   H12       1.0  0.7192624445515154  0.9540020643268997  0.8671535347959576  1.0000
  H   H13       1.0  0.4588767212405313  0.600352748267642  0.37801171769338565  1.0000
  H   H14       1.0  0.5411232778514763  0.10035274852203396  0.6219882820026483  1.0000
  H   H15       1.0  0.4777709272516059  0.7988852876613817  0.3031267236070254  1.0000
  H   H16       1.0  0.5222290731093442  0.29888528696656386  0.6968732761208105  1.0000
  H   H17       1.0  0.2622296948219413  0.8326354710173054  0.31376630635723046  1.0000
  H   H18       1.0  0.7377703055390089  0.33263547127169724  0.6862336933706055  1.0000
  H   H19       1.0  0.5345498547797937  0.7122412093084657  0.4782074712367801  1.0000
  H   H20       1.0  0.46545014558012365  0.21224120861364784  0.5217925290700733  1.0000
  H   H21       1.0  0.7698046021646267  0.9397934263723183  0.46708941577719687  1.0000
  H   H22       1.0  0.23019539819632362  0.43979342662671017  0.5329105839506391  1.0000
  H   H23       1.0  0.7416902889573548  0.6988052015526033  0.3659420310158983  1.0000
  H   H24       1.0  0.25830971140359543  0.19880520180699518  0.6340579687119376  1.0000
  H   H25       1.0  0.9047736675082031  0.6527095177123693  0.1444578038497773  1.0000
  H   H26       1.0  0.0952263328517142  0.15270951701755148  0.8555421964570761  1.0000
  H   H27       1.0  0.6350073416091144  0.6553407424632602  0.04550603082106366  1.0000
  H   H28       1.0  0.3649926587508028  0.15534074271765214  0.9544939694857897  1.0000
  H   H29       1.0  0.5551635385261744  0.765752713356602  0.11064408930060844  1.0000
  H   H30       1.0  0.44483646183374276  0.2657527126617841  0.889355911006245  1.0000
  H   H31       1.0  0.8261797769823092  0.8984920768816362  0.09613699625724051  1.0000
  H   H32       1.0  0.17382022337760814  0.39849207713602813  0.903863004049613  1.0000
  H   H33       1.0  0.7062451064806003  0.8765831889520156  0.007744748941676056  1.0000
  H   H34       1.0  0.2937548926103743  0.3765831892064075  0.9922552513333753  1.0000
  H   H35       1.0  0.891429591321304  0.7838022148586916  0.028997934746021532  1.0000
  H   H36       1.0  0.10857040903861334  0.28380221511308357  0.971002065560832  1.0000
  H   H37       1.0  0.6373469797762651  0.3415044006913063  0.13398520259602217  1.0000
  H   H38       1.0  0.36265301931574245  0.8415044013861241  0.8660147971000117  1.0000
  H   H39       1.0  0.591573703282624  0.47047618156375426  0.07083862586515688  1.0000
  H   H40       1.0  0.40842629707832623  0.9704761822585721  0.929161373862679  1.0000
  H   H41       1.0  0.24670927507830348  0.6503686011849021  0.47341450139928776  1.0000
  H   H42       1.0  0.7532907252816139  0.1503686014392941  0.5265854989075658  1.0000
  H   H43       1.0  0.16906757001569422  0.5223070773891769  0.4147775237536667  1.0000
  H   H44       1.0  0.830932430345256  0.022307077643568783  0.5852224759741693  1.0000
  H   H45       1.0  0.08904048686934832  0.677889759446512  0.398903565519282  1.0000
  H   H46       1.0  0.9109595134905689  0.17788975970090393  0.6010964347875715  1.0000
  H   H47       1.0  0.37136556330096304  0.04938992688985518  0.35216914721061165  1.0000
  H   H48       1.0  0.6286344370599871  0.5493899266354633  0.6478308525172244  1.0000
  H   H49       1.0  0.5848944156357565  0.9987679583941265  0.3469931355748034  1.0000
  H   H50       1.0  0.4151055847241608  0.4987679586485185  0.65300686473205  1.0000
  H   H51       1.0  0.5153314181204335  0.0665422694612421  0.43374317710450355  1.0000
  H   H52       1.0  0.4846685822405167  0.5665422692068501  0.5662568226233323  1.0000
  H   H53       1.0  0.8453163484616276  0.6634197537260764  0.5151021377574637  1.0000
  H   H54       1.0  0.15468365189828964  0.16341975398046832  0.48489786254938977  1.0000
  H   H55       1.0  0.815867216146613  0.7885071194070068  0.5824334867629776  1.0000
  H   H56       1.0  0.1841327842133043  0.28850711966139864  0.41756651354387586  1.0000
  H   H57       1.0  0.989087779871325  0.793470757663983  0.5206941525347363  1.0000
  H   H58       1.0  0.010912219220682678  0.29347075791837496  0.47930584716129765  1.0000
  H   H59       1.0  0.8587764067935605  0.06488356615306586  0.3383342835154454  1.0000
  H   H60       1.0  0.14122359356738975  0.5648835668478838  0.6616657162123905  1.0000
  H   H61       1.0  0.05061026209207094  0.007384188740551966  0.3049976196534601  1.0000
  H   H62       1.0  0.9493897382688792  0.5073841884861601  0.6950023800743759  1.0000
  H   H63       1.0  0.010596725641726295  0.995107012818018  0.4049478205830226  1.0000
  H   H64       1.0  0.9894032734492483  0.4951070130724099  0.5950521796920288  1.0000
  H   H65       1.0  0.7274301718002678  0.08913850013990884  0.1557563454157686  1.0000
  H   H66       1.0  0.2725698285606823  0.5891384998855169  0.8442436543120673  1.0000
  H   H67       1.0  0.6211359420738648  0.9774363181657757  0.21451969288178246  1.0000
  H   H68       1.0  0.3788640582860525  0.47743631842016754  0.785480307425071  1.0000
  H   H69       1.0  0.5764112104686716  0.14030356420875603  0.22458098449010586  1.0000
  H   H70       1.0  0.4235887898922786  0.640303563954364  0.77541901523773  1.0000
  H   H71       1.0  0.19358286580835982  0.04160215692369529  0.10116258885928846  1.0000
  H   H72       1.0  0.8064171345515575  0.5416021566693033  0.8988374114475649  1.0000
  H   H73       1.0  0.26487324461709394  0.09886113746244994  0.1960967239030217  1.0000
  H   H74       1.0  0.7351267544749136  0.598861137208058  0.8039032757930122  1.0000
  H   H75       1.0  0.2810411258910676  0.9363529888770451  0.17324104949424707  1.0000
  H   H76       1.0  0.7189588744688497  0.4363529881822273  0.8267589508126064  1.0000
  C   C1        1.0  0.7175868940275407  0.5229690629476457  0.1818709055526786  1.0000
  C   C2        1.0  0.2824131063334095  0.02296906320203761  0.8181290941751573  1.0000
  C   C3        1.0  0.5620508147113207  0.5253544936178588  0.23385997109723225  1.0000
  C   C4        1.0  0.4379491856496296  0.025354493872250645  0.7661400286306036  1.0000
  C   C5        1.0  0.3718033329267981  0.35874767471383234  0.27781871265089636  1.0000
  C   C6        1.0  0.6281966661652094  0.8587476744594406  0.7221812870451376  1.0000
  C   C7        1.0  0.2853348114975599  0.583571592289834  0.27841933779692113  1.0000
  C   C8        1.0  0.7146651888633903  0.0835715915950162  0.7215806619309147  1.0000
  C   C9        1.0  0.40020422511691783  0.5977531901048642  0.21015856060530247  1.0000
  C   C10       1.0  0.5997957752440325  0.09775319035925606  0.7898414391225335  1.0000
  C   C11       1.0  0.3067553821732478  0.5563652707820704  0.13440097980261334  1.0000
  C   C12       1.0  0.6932446181877023  0.056365271036462355  0.8655990199252226  1.0000
  C   C13       1.0  0.3406169127712789  0.6469789843822812  0.35631294176618183  1.0000
  C   C14       1.0  0.6593830875896712  0.1469789846366731  0.6436870579616542  1.0000
  C   C15       1.0  0.37490635587469934  0.7888937268629843  0.34317566666992877  1.0000
  C   C16       1.0  0.6250936444852179  0.2888937261681665  0.6568243336369246  1.0000
  C   C17       1.0  0.4284563185763908  0.8729487785358452  0.4122772381259639  1.0000
  C   C18       1.0  0.5715436817835264  0.37294877879023713  0.5877227621808895  1.0000
  C   C19       1.0  0.3463116483782036  0.9145197131016135  0.535311595996919  1.0000
  C   C20       1.0  0.6536883519827467  0.4145197133560055  0.46468840373091685  1.0000
  C   C21       1.0  0.5576053566563385  0.8147896433602613  0.472380629423425  1.0000
  C   C22       1.0  0.44239464243463616  0.3147896436146532  0.5276193708516264  1.0000
  C   C23       1.0  0.7462492967445011  0.837440359630615  0.4615643513553022  1.0000
  C   C24       1.0  0.2537507023475064  0.33744035988500704  0.5384356483407317  1.0000
  C   C25       1.0  0.7851471753513667  0.7941879720454118  0.3818583662150036  1.0000
  C   C26       1.0  0.2148528250095835  0.29418797229980365  0.6181416335128324  1.0000
  C   C27       1.0  0.872933037256552  0.8607651107286294  0.33070817730135266  1.0000
  C   C28       1.0  0.12706696183545554  0.3607651109830214  0.6692918223946811  1.0000
  C   C29       1.0  0.9001447220676222  0.8018054661133127  0.25414219556727824  1.0000
  C   C30       1.0  0.09985527702438533  0.3018054654184948  0.7458578041287556  1.0000
  C   C31       1.0  0.7705621975407396  0.6588105665447084  0.15749824631231277  1.0000
  C   C32       1.0  0.2294378028202106  0.15881056679910033  0.8425017534155231  1.0000
  C   C33       1.0  0.6729645979158037  0.7246159824737752  0.09048686755958653  1.0000
  C   C34       1.0  0.32703540244411367  0.22461598272816719  0.9095131327472669  1.0000
  C   C35       1.0  0.7802038052922824  0.8268943976616063  0.05395943281633764  1.0000
  C   C36       1.0  0.21979619506866774  0.32689439791599817  0.9460405669114983  1.0000
  C   C37       1.0  0.6872142763280832  0.43151662187355466  0.11270991598224936  1.0000
  C   C38       1.0  0.3127857227639244  0.9315166216191628  0.8872900837137846  1.0000
  C   C39       1.0  0.8374033540734876  0.3969082218681525  0.06612725421868182  1.0000
  C   C40       1.0  0.16259664628746257  0.8969082216137606  0.9338727455091542  1.0000
  C   C41       1.0  0.20394746961152907  0.6228498453732942  0.41427429455251313  1.0000
  C   C42       1.0  0.7960525307494212  0.12284984467847634  0.5857257051753227  1.0000
  C   C43       1.0  0.4780871802350114  0.004355246982192996  0.3846860077050319  1.0000
  C   C44       1.0  0.5219128188559632  0.5043552467278011  0.6153139925700195  1.0000
  C   C45       1.0  0.8555295396651922  0.766471221510987  0.5240115430169022  1.0000
  C   C46       1.0  0.1444704594257825  0.26647122176537896  0.47598845725814914  1.0000
  C   C47       1.0  0.9525322732004814  0.9882053264026232  0.34602459558484994  1.0000
  C   C48       1.0  0.04746772589152615  0.4882053257078053  0.6539754041111839  1.0000
  C   C49       1.0  0.4649269760185459  0.0545187352455802  0.12103412740562777  1.0000
  C   C50       1.0  0.5350730243413714  0.5545187349911882  0.8789658729012256  1.0000
  C   C51       1.0  0.6077646577232573  0.0672672028167583  0.18215068433028367  1.0000
  C   C52       1.0  0.39223534263769294  0.5672672025623663  0.8178493153975522  1.0000
  C   C53       1.0  0.2898862674629413  0.03259135196302109  0.14885058831764253  1.0000
  C   C54       1.0  0.7101137328969759  0.5325913517086291  0.8511494119892109  1.0000
  N   N1        1.0  0.8679894403133438  0.48369031437667037  0.2326416327999265  1.0000
  N   N2        1.0  0.13201056004657347  0.9836903150714882  0.7673583675069269  1.0000
  N   N3        1.0  0.8720231413234583  0.37697128217572096  0.2616577160287891  1.0000
  N   N4        1.0  0.127976859036459  0.876971281921329  0.7383422842780643  1.0000
  N   N5        1.0  0.8962515396319242  0.281200523126677  0.29182464364807253  1.0000
  N   N6        1.0  0.10374846072799307  0.7812005228722851  0.708175356658781  1.0000
  O   O1        1.0  0.7606075390194481  0.7362977878727682  0.22722872833629745  1.0000
  O   O2        1.0  0.23939246134046918  0.2362977881271602  0.772771271970556  1.0000
  O   O3        1.0  0.5198076027387013  0.3925235626711198  0.24728074669636127  1.0000
  O   O4        1.0  0.480192397621216  0.8925235624167279  0.7527192536104921  1.0000
  O   O5        1.0  0.25732110479106546  0.44792634066639664  0.29303315901002214  1.0000
  O   O6        1.0  0.7426788955698848  0.9479263413612146  0.7069668407178137  1.0000
  O   O7        1.0  0.3426843922509529  0.24694904593920036  0.28946996073982106  1.0000
  O   O8        1.0  0.6573156068410547  0.7469490456848084  0.7105300389562128  1.0000
  O   O9        1.0  0.2828883777243939  0.8942504000042947  0.46203694971643944  1.0000
  O   O10       1.0  0.7171116226365563  0.3942504002586865  0.5379630500113965  1.0000
  O   O11       1.0  0.5097151786955803  0.8740015803465415  0.5445833744785434  1.0000
  O   O12       1.0  0.49028482166536996  0.37400158060093347  0.45541662524929244  1.0000
  O   O13       1.0  0.26911275549280467  0.9638493101150477  0.5862680035222205  1.0000
  O   O14       1.0  0.7308872448671125  0.4638493103694397  0.41373199678463285  1.0000
  O   O15       1.0  0.030411966838564484  0.8114471491289145  0.21893910215917242  1.0000
  O   O16       1.0  0.969588032253443  0.3114471493833064  0.7810608975368615  1.0000
  O   O17       1.0  0.4923067666755812  0.061575186521904295  0.05151166076412537  1.0000
  O   O18       1.0  0.507693233685369  0.5615751872167222  0.9484883389637105  1.0000
  F   F1        1.0  0.9211206393416299  0.5000397545504205  0.03848869122686874  1.0000
  F   F2        1.0  0.07887936101828734  3.9754804812385775e-05  0.9615113090799846  1.0000
  F   F3        1.0  0.7837223048799263  0.3261887714877988  0.0030322721402354946  1.0000
  F   F4        1.0  0.21627769547999087  0.8261887721826167  0.9969677281666179  1.0000
  F   F5        1.0  0.9567943211001263  0.32494399484283254  0.10646561675488501  1.0000
  F   F6        1.0  0.04320567925979085  0.8249439945884406  0.8935343835519685  1.0000
