data_image0
_chemical_formula_structural       H60C50N12O16S8
_chemical_formula_sum              "H60 C50 N12 O16 S8"
_cell_length_a       8.338122039667029
_cell_length_b       16.309506179669746
_cell_length_c       11.143987793960386
_cell_angle_alpha    90.0
_cell_angle_beta     100.77919649071988
_cell_angle_gamma    90.0

_space_group_name_H-M_alt    "P 1"
_space_group_IT_number       1

loop_
  _space_group_symop_operation_xyz
  'x, y, z'

loop_
  _atom_site_type_symbol
  _atom_site_label
  _atom_site_symmetry_multiplicity
  _atom_site_fract_x
  _atom_site_fract_y
  _atom_site_fract_z
  _atom_site_occupancy
  H   H1        1.0  0.06714090541244547  0.520662643396598  0.5681177148727236  1.0000
  H   H2        1.0  0.06714090470715946  0.4793373566236512  0.06811771526313282  1.0000
  H   H3        1.0  0.991631639344308  0.5778768017972477  0.6768072045732876  1.0000
  H   H4        1.0  0.991631638639022  0.4221231982230015  0.1768072049636969  1.0000
  H   H5        1.0  0.28893482371602486  0.17932684581497385  0.49014428012467354  1.0000
  H   H6        1.0  0.2889348231944599  0.8206731542052752  0.9901442804554988  1.0000
  H   H7        1.0  0.7049289378996034  0.5881529480001852  0.6778716358522576  1.0000
  H   H8        1.0  0.7049289384151549  0.4118470520200639  0.17787163641792478  1.0000
  H   H9        1.0  0.42444689072322445  0.5382301801965259  0.5972808115730576  1.0000
  H   H10       1.0  0.42444689001793845  0.4617698198237232  0.09728081196346695  1.0000
  H   H11       1.0  0.613522539802672  0.38943678674449067  0.33433122561634177  1.0000
  H   H12       1.0  0.6135225392811071  0.6105632132757585  0.834331225947167  1.0000
  H   H13       1.0  0.892037226678995  0.4381604195293118  0.41620254822480407  1.0000
  H   H14       1.0  0.8920372273842812  0.5618395804909373  0.9162025478343947  1.0000
  H   H15       1.0  0.3148035254341719  0.06885926205417098  0.34025699244931557  1.0000
  H   H16       1.0  0.3148035249186202  0.9311407379660782  0.8402569918836486  1.0000
  H   H17       1.0  0.3733848206918655  0.13276431279686027  0.12991228778855712  1.0000
  H   H18       1.0  0.3733848213971515  0.8672356872233888  0.6299122873981478  1.0000
  H   H19       1.0  0.9884345114703962  0.03473520496323645  0.059225554919686035  1.0000
  H   H20       1.0  0.9884345109488312  0.9652647950570127  0.5592255552505113  1.0000
  H   H21       1.0  0.05717696353515835  0.04603030660338495  0.9241403093560372  1.0000
  H   H22       1.0  0.05717696405672337  0.9539696934168642  0.4241403090252119  1.0000
  H   H23       1.0  0.24635778846244955  0.3217148669124357  0.585792115470495  1.0000
  H   H24       1.0  0.24635778776317685  0.6782851331078134  0.08579211496441191  1.0000
  H   H25       1.0  0.8787722702864781  0.07020411577067044  0.7322429643471167  1.0000
  H   H26       1.0  0.878772270808043  0.9297958842495787  0.23224296401629152  1.0000
  H   H27       1.0  0.5936999826018399  0.07942123726680664  0.6172475747027161  1.0000
  H   H28       1.0  0.5936999819025672  0.9205787627534424  0.11724757419663298  1.0000
  H   H29       1.0  0.41396124675884466  0.06236108554088637  0.9549913484808608  1.0000
  H   H30       1.0  0.41396124605355866  0.9376389144793628  0.45499134887127013  1.0000
  H   H31       1.0  0.6972405130470233  0.0547913413291398  0.06992228609767064  1.0000
  H   H32       1.0  0.6972405125254583  0.9452086586911093  0.5699222864284959  1.0000
  H   H33       1.0  0.181297803465847  0.4325735710376277  0.7269052985880319  1.0000
  H   H34       1.0  0.18129780276657434  0.5674264289826214  0.22690529808194881  1.0000
  H   H35       1.0  0.12488164644349574  0.36879707783536314  0.935979345980585  1.0000
  H   H36       1.0  0.12488164573820972  0.6312029221848859  0.4359793463709943  1.0000
  H   H37       1.0  0.5772930011783974  0.6706699509783374  0.12561606785213716  1.0000
  H   H38       1.0  0.5772930006628457  0.32933004904191177  0.6256160672864699  1.0000
  H   H39       1.0  0.7471927268561802  0.7361570968326595  0.17572872674650628  1.0000
  H   H40       1.0  0.7471927263406286  0.26384290318758963  0.6757287261808391  1.0000
  H   H41       1.0  0.7641175342620022  0.6287080618530189  0.2034847272618249  1.0000
  H   H42       1.0  0.7641175337464505  0.3712919381672303  0.7034847266961577  1.0000
  H   H43       1.0  0.5442840394115654  0.7472752961210006  0.3168784714698292  1.0000
  H   H44       1.0  0.5442840388960136  0.25272470389924845  0.816878470904162  1.0000
  H   H45       1.0  0.5662527118825985  0.6401257331147107  0.34836748853574173  1.0000
  H   H46       1.0  0.5662527113610335  0.35987426690553853  0.848367488866567  1.0000
  H   H47       1.0  0.9560156535146229  0.8159517537439916  0.5736027053389477  1.0000
  H   H48       1.0  0.9560156540361879  0.18404824627625743  0.07360270500812258  1.0000
  H   H49       1.0  0.002814732184200965  0.7093030268703235  0.5770109864086957  1.0000
  H   H50       1.0  0.002814732705765995  0.29069697314992543  0.07701098607787048  1.0000
  H   H51       1.0  0.9731919923220259  0.7688762456604266  0.9573195829845801  1.0000
  H   H52       1.0  0.9731919916227533  0.23112375435982263  0.457319582478497  1.0000
  H   H53       1.0  0.9812519894025323  0.8786292124443813  0.9510002877388024  1.0000
  H   H54       1.0  0.9812519887032596  0.12137078757586779  0.45100028723271923  1.0000
  H   H55       1.0  0.7347544553600894  0.828946014125963  0.03262945924599857  1.0000
  H   H56       1.0  0.7347544560653755  0.17105398589428605  0.5326294588555893  1.0000
  H   H57       1.0  0.6752447440808993  0.8833157117876465  0.8924460466898677  1.0000
  H   H58       1.0  0.6752447433756135  0.11668428823260273  0.392446047080277  1.0000
  H   H59       1.0  0.6678455096126136  0.7741243162676589  0.8948419835082054  1.0000
  H   H60       1.0  0.6678455089133408  0.22587568375259026  0.39484198300212237  1.0000
  C   C1        1.0  0.8174330143085496  0.5177167381392156  0.5523843723114504  1.0000
  C   C2        1.0  0.8174330148241015  0.48228326188103354  0.05238437287711768  1.0000
  C   C3        1.0  0.6830688811305681  0.5447032443614973  0.6026634367497594  1.0000
  C   C4        1.0  0.683068880425282  0.45529675565875183  0.1026634371401688  1.0000
  C   C5        1.0  0.5265151569208241  0.5173126063447032  0.5569695949430677  1.0000
  C   C6        1.0  0.5265151574363758  0.48268739367554586  0.0569695955087349  1.0000
  C   C7        1.0  0.5010371380600132  0.46214317631489593  0.45880812986767394  1.0000
  C   C8        1.0  0.5010371375384483  0.5378568237053531  0.9588081301984993  1.0000
  C   C9        1.0  0.6333446453372709  0.43359004203419693  0.40892543203790926  1.0000
  C   C10       1.0  0.633344644821719  0.5664099579860522  0.908925431472242  1.0000
  C   C11       1.0  0.7897142660968628  0.4607929876729216  0.4546678897574728  1.0000
  C   C12       1.0  0.789714266802149  0.5392070123473275  0.9546678893670634  1.0000
  C   C13       1.0  0.3168365642317036  0.27058508708872275  0.3648406346403889  1.0000
  C   C14       1.0  0.3168365637161519  0.7294149129315264  0.8648406340747217  1.0000
  C   C15       1.0  0.3261626915295178  0.1328230343785838  0.31665580588982123  1.0000
  C   C16       1.0  0.32616269222879046  0.8671769656416654  0.8166558063959044  1.0000
  C   C17       1.0  0.3540087207417233  0.165194672991292  0.21069836703463446  1.0000
  C   C18       1.0  0.35400872144700934  0.834805327028957  0.710698366644225  1.0000
  C   C19       1.0  0.8083015233828016  0.06023965834261048  0.9089606713696742  1.0000
  C   C20       1.0  0.808301522683529  0.9397603416776387  0.40896067086359106  1.0000
  C   C21       1.0  0.776166234865832  0.0688948744138342  0.7801043847496943  1.0000
  C   C22       1.0  0.7761662353813839  0.9311051249932756  0.28010438531536164  1.0000
  C   C23       1.0  0.6173909812923107  0.0745315760396992  0.7164451873362219  1.0000
  C   C24       1.0  0.6173909805930381  0.9254684239805498  0.21644518683013872  1.0000
  C   C25       1.0  0.48594130939513486  0.07214315424624497  0.778874684379941  1.0000
  C   C26       1.0  0.48594130991669987  0.9278568457740042  0.27887468404911575  1.0000
  C   C27       1.0  0.5156227298948762  0.06528581787027232  0.9064550647502204  1.0000
  C   C28       1.0  0.5156227304104279  0.9347141821499768  0.40645506531588754  1.0000
  C   C29       1.0  0.6748312890567646  0.05955433409815649  0.9706018938083353  1.0000
  C   C30       1.0  0.6748312895723162  0.9404456659220927  0.4706018943740024  1.0000
  C   C31       1.0  0.22170775446220467  0.23130003192263346  0.7134528104102316  1.0000
  C   C32       1.0  0.22170775497775635  0.7686999680976156  0.21345281097589883  1.0000
  C   C33       1.0  0.18314939570319885  0.36830907532245316  0.7525564646750685  1.0000
  C   C34       1.0  0.1831493962187505  0.631690924697796  0.25255646524073583  1.0000
  C   C35       1.0  0.15634329432943916  0.3360375740150691  0.858978549437509  1.0000
  C   C36       1.0  0.15634329363016652  0.6639624260051801  0.35897854893142583  1.0000
  C   C37       1.0  0.6822934410687247  0.6816816724873473  0.1991184693674856  1.0000
  C   C38       1.0  0.6822934405471597  0.3183183275329018  0.6991184696983109  1.0000
  C   C39       1.0  0.6264593949217511  0.6945094986456153  0.3188746195526955  1.0000
  C   C40       1.0  0.6264593956210238  0.3054905013746338  0.8188746200587788  1.0000
  C   C41       1.0  0.7505327924709553  0.7376253889891596  0.5198230726603292  1.0000
  C   C42       1.0  0.7505327929925203  0.2623746110310895  0.019823072329503914  1.0000
  C   C43       1.0  0.9161067402063869  0.7550480145959488  0.5983353382480519  1.0000
  C   C44       1.0  0.9161067395071142  0.24495198542430033  0.09833533774196872  1.0000
  C   C45       1.0  0.9122251422374731  0.7491545418604091  0.7324657628840022  1.0000
  C   C46       1.0  0.9122251415382004  0.25084545815984005  0.23246576237791913  1.0000
  C   C47       1.0  0.9110992412163141  0.8241250980826552  0.9158330577798346  1.0000
  C   C48       1.0  0.9110992405170416  0.17587490132445463  0.4158330572737514  1.0000
  C   C49       1.0  0.7364507144019967  0.8281051204870683  0.9344180837991305  1.0000
  C   C50       1.0  0.7364507149235616  0.17189487953318086  0.4344180834683051  1.0000
  N   N1        1.0  0.9701867098457109  0.5469398969981952  0.5963857522263947  1.0000
  N   N2        1.0  0.9701867103672758  0.45306010302205385  0.09638575189556937  1.0000
  N   N3        1.0  0.2989734341877643  0.3318818381360462  0.4396390996568835  1.0000
  N   N4        1.0  0.2989734336661992  0.6681181618842029  0.9396390999877088  1.0000
  N   N5        1.0  0.30822800834431996  0.19183771265252098  0.4017662138331314  1.0000
  N   N6        1.0  0.3082280078287683  0.8081622873677281  0.9017662132674642  1.0000
  N   N7        1.0  0.9653675239153007  0.05445087608519993  0.9714455078146107  1.0000
  N   N8        1.0  0.9653675244308524  0.9455491239350492  0.471445508380278  1.0000
  N   N9        1.0  0.25720349212878235  0.16984661947968877  0.64394636618035  1.0000
  N   N10       1.0  0.25720349265034737  0.8301533805405604  0.14394636584952478  1.0000
  N   N11       1.0  0.2186358855158836  0.3094617473024067  0.6725014616607657  1.0000
  N   N12       1.0  0.21863588481059754  0.6905382527178424  0.1725014620511751  1.0000
  O   O1        1.0  0.19080841088772363  0.4707876293379889  0.4579416304296043  1.0000
  O   O2        1.0  0.19080841037217194  0.5292123706822602  0.9579416298639372  1.0000
  O   O3        1.0  0.2809774245073836  0.4320206205129061  0.26449386002868985  1.0000
  O   O4        1.0  0.28097742399183195  0.5679793795073431  0.7644938594630226  1.0000
  O   O5        1.0  0.28052053638183483  0.02778395709888843  0.5839473455235553  1.0000
  O   O6        1.0  0.2805205356825622  0.9722160429213607  0.08394734501747221  1.0000
  O   O7        1.0  0.1741941821380456  0.05524729382200373  0.7748758941858626  1.0000
  O   O8        1.0  0.17419418143877294  0.9447527061982454  0.2748758936797793  1.0000
  O   O9        1.0  0.7725975854743904  0.7108706837765684  0.40992836049267545  1.0000
  O   O10       1.0  0.772597586173663  0.28912931624368077  0.9099283609987586  1.0000
  O   O11       1.0  0.6185191363203675  0.7478075378642131  0.5500609693419239  1.0000
  O   O12       1.0  0.6185191368359192  0.25219246215603613  0.05006096990759111  1.0000
  O   O13       1.0  0.9161469478052435  0.8235912983523572  0.7853834297204638  1.0000
  O   O14       1.0  0.9161469471059709  0.1764087016678919  0.2853834292143806  1.0000
  O   O15       1.0  0.9078466318003279  0.6840245165673006  0.7867435905754311  1.0000
  O   O16       1.0  0.907846632321893  0.31597548345294857  0.2867435902446058  1.0000
  S   S1        1.0  0.3056231347580431  0.4273288555289126  0.39770568418324476  1.0000
  S   S2        1.0  0.30562313545731573  0.5726711444913365  0.8977056846893278  1.0000
  S   S3        1.0  0.35416521052226835  0.27168614495044907  0.2151268441418464  1.0000
  S   S4        1.0  0.3541652100067167  0.7283138550698001  0.7151268435761793  1.0000
  S   S5        1.0  0.2867459540738093  0.07698809492866114  0.6936070135171124  1.0000
  S   S6        1.0  0.2867459545953743  0.9230119050915879  0.19360701318628712  1.0000
  S   S7        1.0  0.1728426130533509  0.23002014154642939  0.8588371682437187  1.0000
  S   S8        1.0  0.17284261235407827  0.7699798584738197  0.3588371677376356  1.0000
