data_image0
_chemical_formula_structural       H144C100N8O28
_chemical_formula_sum              "H144 C100 N8 O28"
_cell_length_a       8.924511911913415
_cell_length_b       17.46913535349361
_cell_length_c       17.01059058696566
_cell_angle_alpha    90.0
_cell_angle_beta     104.64388724486814
_cell_angle_gamma    90.0

_space_group_name_H-M_alt    "P 1"
_space_group_IT_number       1

loop_
  _space_group_symop_operation_xyz
  'x, y, z'

loop_
  _atom_site_type_symbol
  _atom_site_label
  _atom_site_symmetry_multiplicity
  _atom_site_fract_x
  _atom_site_fract_y
  _atom_site_fract_z
  _atom_site_occupancy
  H   H1        1.0  0.3556905439016457  0.0754361617409104  0.970634175163458  1.0000
  H   H2        1.0  0.644309456908425  0.5754361613546976  0.5293658249168235  1.0000
  H   H3        1.0  0.6443094569020811  0.9245638386315402  0.02936582482357272  1.0000
  H   H4        1.0  0.3556905439005759  0.4245638384453149  0.4706341756587696  1.0000
  H   H5        1.0  0.3640412121138875  0.16899963050601594  0.931723593942968  1.0000
  H   H6        1.0  0.6359587875380648  0.6689996306922412  0.5682764059863828  1.0000
  H   H7        1.0  0.635958787536995  0.8310003692939966  0.0682764064816945  1.0000
  H   H8        1.0  0.3640412121075436  0.3310003691077712  0.43172359384971715  1.0000
  H   H9        1.0  0.4934749347989095  0.12004139916293122  0.10975636807156945  1.0000
  H   H10       1.0  0.5065250648403549  0.6200413993491566  0.39024363167127973  1.0000
  H   H11       1.0  0.5065250648466989  0.8799586006370812  0.8902436317645306  1.0000
  H   H12       1.0  0.4934749348052535  0.3799586010232941  0.6097563681648203  1.0000
  H   H13       1.0  0.3192432555204458  0.1732404357033484  0.06984760156964191  1.0000
  H   H14       1.0  0.6807567441188186  0.6732404353171355  0.4301523981732072  1.0000
  H   H15       1.0  0.6807567441251626  0.8267595646691023  0.9301523982664581  1.0000
  H   H16       1.0  0.3192432555267897  0.3267595644828769  0.5698476016628927  1.0000
  H   H17       1.0  0.6593761380578586  0.21521336425206233  0.18846234073998808  1.0000
  H   H18       1.0  0.3406238615866801  0.7152133644382876  0.3115376595914236  1.0000
  H   H19       1.0  0.3406238615877499  0.78478663554795  0.811537659096112  1.0000
  H   H20       1.0  0.6593761380642024  0.28478663536172477  0.688462340833239  1.0000
  H   H21       1.0  0.47333120665212103  0.25806224113424314  0.1788595177041867  1.0000
  H   H22       1.0  0.526668794150536  0.7580622413204685  0.3211404827781556  1.0000
  H   H23       1.0  0.5266687941568798  0.7419377586657693  0.8211404828714064  1.0000
  H   H24       1.0  0.4733312066531908  0.24193775847954396  0.678859517208875  1.0000
  H   H25       1.0  0.6486309362631631  0.3584669248525604  0.2165246200712595  1.0000
  H   H26       1.0  0.3513690633813755  0.8584669250387856  0.2834753802601522  1.0000
  H   H27       1.0  0.3513690633824452  0.6415330755198901  0.7834753797648405  1.0000
  H   H28       1.0  0.6486309362695071  0.14153307533366488  0.7165246201645102  1.0000
  H   H29       1.0  0.5642270793689954  0.37144172328496655  0.10970333502762768  1.0000
  H   H30       1.0  0.43577292027026915  0.8714417228987537  0.3902966647152215  1.0000
  H   H31       1.0  0.43577292027661296  0.628558277087484  0.8902966648084724  1.0000
  H   H32       1.0  0.5642270793753393  0.12855827690125876  0.6097033351208786  1.0000
  H   H33       1.0  0.8630544102811664  0.4338623215535538  0.20217427076230315  1.0000
  H   H34       1.0  0.13694558935809817  0.933862321739779  0.29782572898054605  1.0000
  H   H35       1.0  0.13694558936444204  0.5661376782464586  0.7978257290737969  1.0000
  H   H36       1.0  0.8630544102875102  0.0661376780602333  0.702174270855554  1.0000
  H   H37       1.0  0.7824431381386313  0.44225667805905045  0.09510080547644471  1.0000
  H   H38       1.0  0.21755686266402557  0.9422566776728375  0.4048991950058976  1.0000
  H   H39       1.0  0.2175568626703695  0.5577433223134002  0.9048991950991484  1.0000
  H   H40       1.0  0.7824431381397011  0.05774332212717484  0.595100804981133  1.0000
  H   H41       1.0  0.09185971123929344  0.364341779441713  0.1793865712665291  1.0000
  H   H42       1.0  0.9081402884052452  0.8643417796279382  0.3206134290648826  1.0000
  H   H43       1.0  0.908140288406315  0.6356582203582994  0.8206134285695709  1.0000
  H   H44       1.0  0.09185971124563734  0.13565822074451228  0.6793865713597799  1.0000
  H   H45       1.0  0.06841404112299357  0.4559479349621672  0.129817535301806  1.0000
  H   H46       1.0  0.9315859585162709  0.9559479351483926  0.37018246444104314  1.0000
  H   H47       1.0  0.9315859585226148  0.5440520648378453  0.8701824645342939  1.0000
  H   H48       1.0  0.06841404112933747  0.044052064651619934  0.6298175353950568  1.0000
  H   H49       1.0  0.23945093709128176  0.31912118300034326  0.08299118311312147  1.0000
  H   H50       1.0  0.7605490637061011  0.8191211831865686  0.4170088167806584  1.0000
  H   H51       1.0  0.760549063712445  0.6808788167996692  0.9170088168739092  1.0000
  H   H52       1.0  0.2394509370976257  0.18087881661344388  0.5829911832063723  1.0000
  H   H53       1.0  0.21442121503210473  0.40987150795463206  0.03339414960410466  1.0000
  H   H54       1.0  0.7855787846071598  0.9098715081408574  0.4666058501387445  1.0000
  H   H55       1.0  0.7855787846135036  0.5901284918453803  0.9666058502319953  1.0000
  H   H56       1.0  0.21442121503844863  0.09012849165915508  0.5333941496973554  1.0000
  H   H57       1.0  0.2599103018813053  0.3086766151205992  0.9401706219927928  1.0000
  H   H58       1.0  0.7400896977706469  0.8086766147343863  0.5598293779365581  1.0000
  H   H59       1.0  0.7400896977643031  0.6913233852518514  0.05982937784330717  1.0000
  H   H60       1.0  0.2599103018802355  0.19132338506562607  0.4401706224881045  1.0000
  H   H61       1.0  0.07215473089840224  0.35113231398560785  0.9044081333302606  1.0000
  H   H62       1.0  0.92784526875355  0.8511323141718331  0.5955918665990902  1.0000
  H   H63       1.0  0.9278452687524803  0.6488676858144047  0.09559186709440193  1.0000
  H   H64       1.0  0.07215473089205833  0.14886768562817934  0.40440813323700975  1.0000
  H   H65       1.0  0.13923501939889155  0.20346588071339028  0.8514633211687445  1.0000
  H   H66       1.0  0.8607649802530608  0.7034658808996156  0.6485366787606065  1.0000
  H   H67       1.0  0.8607649802467169  0.7965341190866221  0.1485366786673556  1.0000
  H   H68       1.0  0.13923501939254765  0.2965341189003968  0.3514633210754936  1.0000
  H   H69       1.0  0.949521823132942  0.2433615845302721  0.83163959155738  1.0000
  H   H70       1.0  0.05047817651901033  0.7433615847164974  0.668360408371971  1.0000
  H   H71       1.0  0.05047817651266642  0.7566384152697403  0.16836040827872004  1.0000
  H   H72       1.0  0.9495218231265982  0.2566384156559532  0.3316395914641292  1.0000
  H   H73       1.0  0.04265994540481558  0.09772275876599666  0.9327502417113956  1.0000
  H   H74       1.0  0.9573400542471365  0.5977227583797837  0.5672497582179552  1.0000
  H   H75       1.0  0.9573400542407929  0.902277241606454  0.06724975812470435  1.0000
  H   H76       1.0  0.04265994539847168  0.40227724142022864  0.43275024161814485  1.0000
  H   H77       1.0  0.9738503864557265  0.0968272410610021  0.8247139488185924  1.0000
  H   H78       1.0  0.02614961319622588  0.5968272412472274  0.6752860511107583  1.0000
  H   H79       1.0  0.02614961318988198  0.9031727587390103  0.17528605101750758  1.0000
  H   H80       1.0  0.9738503864493825  0.4031727591252232  0.3247139487253416  1.0000
  H   H81       1.0  0.8104537573373064  0.02586655497575227  0.9369496361225716  1.0000
  H   H82       1.0  0.18954624347276422  0.5258665551619776  0.5630503639577097  1.0000
  H   H83       1.0  0.1895462434664203  0.9741334448242601  0.06305036386445888  1.0000
  H   H84       1.0  0.8104537573362366  0.474133445210473  0.43694963661788344  1.0000
  H   H85       1.0  0.7448343856377028  0.030554209993756534  0.8290623202394144  1.0000
  H   H86       1.0  0.25516561401952376  0.5305542101799818  0.670937680278499  1.0000
  H   H87       1.0  0.25516561401317983  0.969445789806256  0.1709376801852481  1.0000
  H   H88       1.0  0.7448343856313588  0.46944578962003064  0.32906232014616354  1.0000
  H   H89       1.0  0.5199068178316605  0.018108551087317314  0.8891539289737947  1.0000
  H   H90       1.0  0.4800931818202918  0.5181085507011045  0.6108460709555562  1.0000
  H   H91       1.0  0.48009318181394794  0.9818914492851333  0.11084607086230532  1.0000
  H   H92       1.0  0.5199068178253166  0.48189144909890796  0.3891539288805439  1.0000
  H   H93       1.0  0.514775582418093  0.10772814864152047  0.8396109743984865  1.0000
  H   H94       1.0  0.4852244172338593  0.6077281488277457  0.6603890255308642  1.0000
  H   H95       1.0  0.4852244172275154  0.892271851158492  0.16038902543761346  1.0000
  H   H96       1.0  0.5147755824117491  0.39227185097226663  0.3396109743052357  1.0000
  H   H97       1.0  0.6388737621653884  0.1616155850229518  0.9727217155806582  1.0000
  H   H98       1.0  0.36112623748656386  0.6616155852091771  0.5272782843486927  1.0000
  H   H99       1.0  0.36112623748022  0.8383844147770606  0.02727828425544193  1.0000
  H   H100      1.0  0.6388737621643187  0.3383844151632735  0.47272171607596974  1.0000
  H   H101      1.0  0.9578632887431947  0.3108688724490274  0.04977902013234009  1.0000
  H   H102      1.0  0.042136710901343875  0.8108688726352526  0.45022098019907164  1.0000
  H   H103      1.0  0.042136710907687766  0.689131127350985  0.9502209802923224  1.0000
  H   H104      1.0  0.9578632887442644  0.18913112716475972  0.5497790196370285  1.0000
  H   H105      1.0  0.8607699253519465  0.9286818043204151  0.682015134136697  1.0000
  H   H106      1.0  0.1392300743000059  0.4286818041341899  0.817984865792654  1.0000
  H   H107      1.0  0.139230074293662  0.0713181960520354  0.3179848656994031  1.0000
  H   H108      1.0  0.8607699253456026  0.5713181956658225  0.18201513404344602  1.0000
  H   H109      1.0  0.10892978931861523  0.9901939718236054  0.7546860931321123  1.0000
  H   H110      1.0  0.8910702103333371  0.4901939722098182  0.7453139067972386  1.0000
  H   H111      1.0  0.8910702103269931  0.009806027976407061  0.24531390670398776  1.0000
  H   H112      1.0  0.10892978931227132  0.5098060281626323  0.2546860930388614  1.0000
  H   H113      1.0  0.11868777257116213  0.8505931770131004  0.9650912774676387  1.0000
  H   H114      1.0  0.8813122270807902  0.3505931773993132  0.5349087224617122  1.0000
  H   H115      1.0  0.8813122270797203  0.14940682278691206  0.03490872295702383  1.0000
  H   H116      1.0  0.11868777256481823  0.6494068229731373  0.4650912773743878  1.0000
  H   H117      1.0  0.8846882797968867  0.7839680031594192  0.8892124210345103  1.0000
  H   H118      1.0  0.11531171985506566  0.2839680029731939  0.6107875788948406  1.0000
  H   H119      1.0  0.11531171984872175  0.21603199664059325  0.1107875788015898  1.0000
  H   H120      1.0  0.8846882797905427  0.7160319968268185  0.3892124209412594  1.0000
  H   H121      1.0  0.641524534522916  0.9617864679627599  0.731419534036175  1.0000
  H   H122      1.0  0.35847546512903616  0.4617864677765347  0.768580465893176  1.0000
  H   H123      1.0  0.35847546512269224  0.03821353183725243  0.26858046579992506  1.0000
  H   H124      1.0  0.6415245345165723  0.5382135320234777  0.23141953394292408  1.0000
  H   H125      1.0  0.3974747529964537  0.02104714644199431  0.6526115901089874  1.0000
  H   H126      1.0  0.6025252466554986  0.5210471460557815  0.8473884098203635  1.0000
  H   H127      1.0  0.6025252466544289  0.9789528539304563  0.34738841031567513  1.0000
  H   H128      1.0  0.39747475299010987  0.47895285374423097  0.15261159001573657  1.0000
  H   H129      1.0  0.22750595545415386  0.7978898221320658  0.5627717575280136  1.0000
  H   H130      1.0  0.7724940441977984  0.2978898225182787  0.9372282424013374  1.0000
  H   H131      1.0  0.7724940441914545  0.20211017766794656  0.4372282423080865  1.0000
  H   H132      1.0  0.22750595544780994  0.7021101778541718  0.06277175743476268  1.0000
  H   H133      1.0  0.47115732175666075  0.7399671539790803  0.6426884914521316  1.0000
  H   H134      1.0  0.5288426778952915  0.23996715379285494  0.8573115084772192  1.0000
  H   H135      1.0  0.5288426778889477  0.2600328463933704  0.3573115083839684  1.0000
  H   H136      1.0  0.47115732175031694  0.7600328460071576  0.1426884913588808  1.0000
  H   H137      1.0  0.321108682779216  0.933363716066187  0.955145803996111  1.0000
  H   H138      1.0  0.6788913168727364  0.43336371587996175  0.5448541959332398  1.0000
  H   H139      1.0  0.6788913168716665  0.06663628430626356  0.04485419642855144  1.0000
  H   H140      1.0  0.3211086827728721  0.5666362839200506  0.45514580390286025  1.0000
  H   H141      1.0  0.09446571592579246  0.9107842980229742  0.5149602954196459  1.0000
  H   H142      1.0  0.9055342837261598  0.41078429783674897  0.9850397045097048  1.0000
  H   H143      1.0  0.9055342837198159  0.08921570234947634  0.485039704416454  1.0000
  H   H144      1.0  0.09446571591944858  0.5892157019632634  0.014960295326395232  1.0000
  C   C1        1.0  0.42446258402695003  0.12831862222372126  0.9788650406469737  1.0000
  C   C2        1.0  0.5755374167831206  0.6283186224099466  0.5211349594333078  1.0000
  C   C3        1.0  0.5755374167767767  0.8716813775762912  0.021134959340056936  1.0000
  C   C4        1.0  0.42446258402060616  0.371681377962504  0.47886504055372286  1.0000
  C   C5        1.0  0.43627724140777113  0.16129176361533598  0.06234059242928694  1.0000
  C   C6        1.0  0.5637227582367675  0.6612917632291231  0.4376594079021247  1.0000
  C   C7        1.0  0.5637227582431115  0.8387082367571147  0.9376594079953755  1.0000
  C   C8        1.0  0.4362772414088409  0.33870823657088933  0.5623405919339752  1.0000
  C   C9        1.0  0.5734146805483282  0.25531534044173676  0.15196278363093815  1.0000
  C   C10       1.0  0.4265853190909362  0.755315340627962  0.348037216111911  1.0000
  C   C11       1.0  0.4265853190972801  0.7446846593582757  0.8480372162051618  1.0000
  C   C12       1.0  0.5734146805546723  0.24468465974448855  0.6519627837241889  1.0000
  C   C13       1.0  0.6412629847042643  0.3343496573705299  0.15544078611510634  1.0000
  C   C14       1.0  0.3587370149350001  0.8343496569843171  0.34455921362774283  1.0000
  C   C15       1.0  0.35873701494134397  0.6656503430019206  0.8445592137209937  1.0000
  C   C16       1.0  0.6412629847106084  0.16565034281569535  0.6554407862083571  1.0000
  C   C17       1.0  0.8565193781489271  0.4061244089325325  0.14297558609318414  1.0000
  C   C18       1.0  0.14348062149033744  0.9061244091187578  0.3570244136496651  1.0000
  C   C19       1.0  0.14348062149668134  0.59387559086748  0.8570244137429159  1.0000
  C   C20       1.0  0.8565193781552709  0.0938755906812546  0.642975586186435  1.0000
  C   C21       1.0  0.017482791761024373  0.3987140856749415  0.13021300887817772  1.0000
  C   C22       1.0  0.9825172090416325  0.8987140858611667  0.3697869916041646  1.0000
  C   C23       1.0  0.9825172090427025  0.6012859141250709  0.8697869911088529  1.0000
  C   C24       1.0  0.017482791767368278  0.10128591393884566  0.6302130089714284  1.0000
  C   C25       1.0  0.16223133046400012  0.3530035731715104  0.034425528639902406  1.0000
  C   C26       1.0  0.8377686691752645  0.8530035733577357  0.4655744711029468  1.0000
  C   C27       1.0  0.8377686691816083  0.646996426628502  0.9655744711961977  1.0000
  C   C28       1.0  0.16223133047034402  0.14699642644227678  0.5344255287331532  1.0000
  C   C29       1.0  0.14501298159280548  0.31530701998358723  0.9526974994848912  1.0000
  C   C30       1.0  0.8549870180591468  0.8153070201698126  0.5473025004444596  1.0000
  C   C31       1.0  0.8549870180528029  0.6846929798164252  0.04730250035120877  1.0000
  C   C32       1.0  0.14501298158646161  0.18469298020263805  0.45269749939164045  1.0000
  C   C33       1.0  0.035051110092628734  0.20793569781766869  0.8749580508929131  1.0000
  C   C34       1.0  0.9649488907174417  0.707935698003894  0.6250419491873683  1.0000
  C   C35       1.0  0.9649488907110981  0.7920643019823437  0.1250419490941175  1.0000
  C   C36       1.0  0.03505111008628484  0.2920643023685566  0.3749580507996623  1.0000
  C   C37       1.0  0.9705904773548758  0.1290651331262996  0.8800808164123424  1.0000
  C   C38       1.0  0.029409523455195024  0.6290651333125249  0.6199191836679391  1.0000
  C   C39       1.0  0.029409523448851123  0.8709348666737128  0.11991918357468831  1.0000
  C   C40       1.0  0.9705904773485318  0.3709348670599257  0.38008081631909146  1.0000
  C   C41       1.0  0.7442396751102729  0.06117377181958137  0.8858218791590254  1.0000
  C   C42       1.0  0.25576032454167946  0.5611737720058066  0.6141781207703255  1.0000
  C   C43       1.0  0.25576032453533554  0.9388262279804309  0.11417812067707467  1.0000
  C   C44       1.0  0.7442396751092031  0.4388262277942057  0.385821879654337  1.0000
  C   C45       1.0  0.5796609497190841  0.07343897760477498  0.8918661488212378  1.0000
  C   C46       1.0  0.4203390510909865  0.5734389777910003  0.6081338512590437  1.0000
  C   C47       1.0  0.42033905108464265  0.9265610221952374  0.10813385116579285  1.0000
  C   C48       1.0  0.5796609497127402  0.42656102200901214  0.3918661487279869  1.0000
  C   C49       1.0  0.7141676220167243  0.8073341481769153  0.7401702099475718  1.0000
  C   C50       1.0  0.28583237763522795  0.30733414799069003  0.7598297899817791  1.0000
  C   C51       1.0  0.2858323776288841  0.19266585219553528  0.2598297898885283  1.0000
  C   C52       1.0  0.7141676220103804  0.6926658518093224  0.2401702098543209  1.0000
  C   C53       1.0  0.8544807877343069  0.8513415700924055  0.7805823006670777  1.0000
  C   C54       1.0  0.14551921307576374  0.35134156990618026  0.7194176994132038  1.0000
  C   C55       1.0  0.14551921306941984  0.14865843028004505  0.219417699319953  1.0000
  C   C56       1.0  0.8544807877332371  0.6486584298938322  0.2805823011623893  1.0000
  C   C57       1.0  0.9176520100819231  0.9111061090277116  0.7437839170178023  1.0000
  C   C58       1.0  0.08234799072814758  0.4111061094139245  0.7562160830624791  1.0000
  C   C59       1.0  0.08234799072180368  0.08889389077230084  0.2562160829692282  1.0000
  C   C60       1.0  0.9176520100755792  0.5888938909585262  0.24378391692455154  1.0000
  C   C61       1.0  0.05553587311353494  0.946193851357066  0.784002006480008  1.0000
  C   C62       1.0  0.9444641265384173  0.4461938517432789  0.7159979934493429  1.0000
  C   C63       1.0  0.9444641265320736  0.05380614844294639  0.21599799335609207  1.0000
  C   C64       1.0  0.05553587311246514  0.5538061486291717  0.28400200697531963  1.0000
  C   C65       1.0  0.13124649415085185  0.9251486889857942  0.8641254623070078  1.0000
  C   C66       1.0  0.8687535055011005  0.4251486887995688  0.6358745376223429  1.0000
  C   C67       1.0  0.8687535054947566  0.07485131081421832  0.1358745375290922  1.0000
  C   C68       1.0  0.13124649414450792  0.5748513110004436  0.36412546221375697  1.0000
  C   C69       1.0  0.06599007483047296  0.8667458339300078  0.9022627163019448  1.0000
  C   C70       1.0  0.9340099248214793  0.3667458343162206  0.5977372836274061  1.0000
  C   C71       1.0  0.9340099248151355  0.13325416587000466  0.09773728353415523  1.0000
  C   C72       1.0  0.06599007482412905  0.63325416605623  0.4022627162086939  1.0000
  C   C73       1.0  0.9328593615846672  0.8297103380735621  0.8598280278422273  1.0000
  C   C74       1.0  0.06714063806728506  0.3297103378873369  0.6401719720871235  1.0000
  C   C75       1.0  0.06714063806094114  0.17028966229888845  0.14017197199387268  1.0000
  C   C76       1.0  0.9328593615783233  0.6702896619126756  0.3598280277489765  1.0000
  C   C77       1.0  0.5766140690631189  0.8464165335488657  0.6901179718303718  1.0000
  C   C78       1.0  0.423385931752226  0.3464165339350786  0.8098820288384723  1.0000
  C   C79       1.0  0.4233859317458821  0.15358346625114674  0.3098820287452214  1.0000
  C   C80       1.0  0.5766140690567749  0.6535834664373721  0.19011797173712092  1.0000
  C   C81       1.0  0.5526894705803626  0.9260520742810968  0.692850439521907  1.0000
  C   C82       1.0  0.4473105290715897  0.42605207466730977  0.8071495604074439  1.0000
  C   C83       1.0  0.4473105290652458  0.07394792551891556  0.30714956031419305  1.0000
  C   C84       1.0  0.5526894705740187  0.5739479257051409  0.19285043942865612  1.0000
  C   C85       1.0  0.4161260145321589  0.9595737482592477  0.6492547356329053  1.0000
  C   C86       1.0  0.5838739851197934  0.4595737480730223  0.8507452642964455  1.0000
  C   C87       1.0  0.5838739851134495  0.04042625211320298  0.3507452642031947  1.0000
  C   C88       1.0  0.416126014525815  0.5404262517269901  0.1492547355396545  1.0000
  C   C89       1.0  0.29735157123469086  0.9145235855537069  0.6000722803944222  1.0000
  C   C90       1.0  0.7026484295753799  0.41452358536748163  0.8999277196858592  1.0000
  C   C91       1.0  0.702648429569036  0.08547641481874366  0.3999277195926084  1.0000
  C   C92       1.0  0.29735157122834693  0.5854764144325308  0.10007228030117142  1.0000
  C   C93       1.0  0.31915771457368775  0.834305429838304  0.5982236448115914  1.0000
  C   C94       1.0  0.680842286236383  0.33430542965207877  0.90177635526869  1.0000
  C   C95       1.0  0.6808422862300391  0.16569457053414655  0.40177635517543914  1.0000
  C   C96       1.0  0.31915771457261793  0.6656945701479337  0.09822364530690314  1.0000
  C   C97       1.0  0.4555796628489565  0.8017701464084728  0.6426068537060537  1.0000
  C   C98       1.0  0.5444203368029958  0.30177014622224746  0.857393146223297  1.0000
  C   C99       1.0  0.5444203368019259  0.1982298539639778  0.3573931467186087  1.0000
  C   C100      1.0  0.4555796628426126  0.6982298535777649  0.14260685361280298  1.0000
  N   N1        1.0  0.5800704406134387  0.11088088109710738  0.969253642795833  1.0000
  N   N2        1.0  0.4199295590385136  0.6108808812833327  0.5307463571335177  1.0000
  N   N3        1.0  0.41992955903216966  0.889119118702905  0.0307463570402669  1.0000
  N   N4        1.0  0.5800704406070948  0.38911911851667974  0.4692536427025823  1.0000
  N   N5        1.0  0.009291147019976298  0.3633949689862836  0.05063787111168183  1.0000
  N   N6        1.0  0.9907088526192881  0.8633949686000706  0.4493621286311673  1.0000
  N   N7        1.0  0.990708852625632  0.6366050313861671  0.9493621287244183  1.0000
  N   N8        1.0  0.009291147026320199  0.13660503119994175  0.5506378712049327  1.0000
  O   O1        1.0  0.5257137812599018  0.22979225066209102  0.06958538156533442  1.0000
  O   O2        1.0  0.47428621838463697  0.7297922508483163  0.4304146187660773  1.0000
  O   O3        1.0  0.47428621838570667  0.7702077491379214  0.9304146182707655  1.0000
  O   O4        1.0  0.5257137812662456  0.2702077489516961  0.5695853816585853  1.0000
  O   O5        1.0  0.7915821329908107  0.3316484630042866  0.14122799918915566  1.0000
  O   O6        1.0  0.20841786781184626  0.8316484631905119  0.35877200129318665  1.0000
  O   O7        1.0  0.20841786781291605  0.6683515367957259  0.858772000797875  1.0000
  O   O8        1.0  0.7915821329971546  0.16835153660950056  0.6412279992824065  1.0000
  O   O9        1.0  0.07284219065134506  0.24249369727121733  0.9536742655943086  1.0000
  O   O10       1.0  0.9271578090006073  0.7424936974574426  0.5463257343350422  1.0000
  O   O11       1.0  0.9271578089942631  0.757506302528795  0.04632573424179139  1.0000
  O   O12       1.0  0.07284219065027527  0.25750630234256977  0.4536742660896203  1.0000
  O   O13       1.0  0.8146984564113863  0.13451369701191662  0.8868492656115604  1.0000
  O   O14       1.0  0.1853015443986844  0.6345136971981419  0.613150734468721  1.0000
  O   O15       1.0  0.18530154439234053  0.8654863027880958  0.11315073437547023  1.0000
  O   O16       1.0  0.8146984564050423  0.36548630317430875  0.3868492655183096  1.0000
  O   O17       1.0  0.7118737490568985  0.7365874211643022  0.7520081434773129  1.0000
  O   O18       1.0  0.28812625059505376  0.23658742097807695  0.7479918564520379  1.0000
  O   O19       1.0  0.288126250593984  0.2634125792081483  0.24799185694734957  1.0000
  O   O20       1.0  0.7118737490505546  0.7634125788219355  0.2520081433840621  1.0000
  O   O21       1.0  0.26229240824570976  0.9621358269823397  0.90138960682371  1.0000
  O   O22       1.0  0.7377075925643609  0.4621358267961143  0.5986103932565714  1.0000
  O   O23       1.0  0.737707592558017  0.03786417281767282  0.09861039316332054  1.0000
  O   O24       1.0  0.2622924082393659  0.5378641730038981  0.40138960673045926  1.0000
  O   O25       1.0  0.16833450732618527  0.9492154742898488  0.5579285314535141  1.0000
  O   O26       1.0  0.831665492325767  0.44921547410362334  0.942071468475837  1.0000
  O   O27       1.0  0.8316654923194231  0.05078452608260195  0.442071468382586  1.0000
  O   O28       1.0  0.16833450731984137  0.550784525696389  0.057928531360263144  1.0000
