data_image0
_chemical_formula_structural       H88C64N16O4P4S8
_chemical_formula_sum              "H88 C64 N16 O4 P4 S8"
_cell_length_a       11.574400726015247
_cell_length_b       9.323780504102857
_cell_length_c       16.800506383814767
_cell_angle_alpha    90.0
_cell_angle_beta     91.38121295526548
_cell_angle_gamma    90.0

_space_group_name_H-M_alt    "P 1"
_space_group_IT_number       1

loop_
  _space_group_symop_operation_xyz
  'x, y, z'

loop_
  _atom_site_type_symbol
  _atom_site_label
  _atom_site_symmetry_multiplicity
  _atom_site_fract_x
  _atom_site_fract_y
  _atom_site_fract_z
  _atom_site_occupancy
  H   H1        1.0  0.16126787628348244  0.26404847571397105  0.8579055076452272  1.0000
  H   H2        1.0  0.33873212421828497  0.76404847549395  0.14209449247469497  1.0000
  H   H3        1.0  0.8387321240397853  0.7359515249185131  0.1420944923349462  1.0000
  H   H4        1.0  0.6612678761049827  0.23595152513853415  0.8579055075054784  1.0000
  H   H5        1.0  0.046202586966771195  0.13173956952970864  0.9580329850765041  1.0000
  H   H6        1.0  0.4537974135244356  0.6317395693096876  0.04196701444806681  1.0000
  H   H7        1.0  0.9537974133564964  0.8682604300302492  0.04196701490366914  1.0000
  H   H8        1.0  0.5462025867988322  0.3682604302502703  0.9580329855321067  1.0000
  H   H9        1.0  0.1478403759312204  0.9986112409985242  0.06862249128565188  1.0000
  H   H10       1.0  0.3521596237063848  0.4986112412185454  0.9313775088271932  1.0000
  H   H11       1.0  0.852159623527885  0.0013887585614335432  0.9313775086874444  1.0000
  H   H12       1.0  0.6478403766168828  0.5013887583414125  0.0686224911529802  1.0000
  H   H13       1.0  0.3618903926562731  0.9997699619696203  0.07850289604448568  1.0000
  H   H14       1.0  0.13810960697077146  0.49976996218964137  0.9214971034730083  1.0000
  H   H15       1.0  0.6381096068028322  0.00023003866286386559  0.9214971039286106  1.0000
  H   H16       1.0  0.861890392488334  0.5002300384428428  0.07850289650008802  1.0000
  H   H17       1.0  0.47621394683214063  0.12945470986461616  0.9763901985493008  1.0000
  H   H18       1.0  0.023786052805464544  0.629454709644595  0.02360980156354428  1.0000
  H   H19       1.0  0.5237860526269648  0.8705452907678679  0.02360980142379553  1.0000
  H   H20       1.0  0.9762139466536409  0.3705452909878891  0.976390198409552  1.0000
  H   H21       1.0  0.5200002147852991  0.26097055791149043  0.47079148571277685  1.0000
  H   H22       1.0  0.9799997845058671  0.7609705576914693  0.5292085147159218  1.0000
  H   H23       1.0  0.47999978467380633  0.7390294427209937  0.5292085142603196  1.0000
  H   H24       1.0  0.02000021495323826  0.23902944294101477  0.4707914852571745  1.0000
  H   H25       1.0  0.4681061118768084  0.08871988456141745  0.36190413858565523  1.0000
  H   H26       1.0  0.031893887760796734  0.5887198854139226  0.6380958615271899  1.0000
  H   H27       1.0  0.531893887582297  0.9112801149985403  0.6380958613874411  1.0000
  H   H28       1.0  0.9681061125624709  0.41128011521856145  0.3619041384529836  1.0000
  H   H29       1.0  0.550302025478027  0.16878242353597983  0.6102296554091302  1.0000
  H   H30       1.0  0.9496979746773014  0.6687824233159587  0.3897703450266455  1.0000
  H   H31       1.0  0.44969797484524066  0.8312175770965042  0.38977034457104315  1.0000
  H   H32       1.0  0.050302025645966135  0.33121757624399906  0.6102296549535279  1.0000
  H   H33       1.0  0.3183648790852133  0.117169732762292  0.6615509140274608  1.0000
  H   H34       1.0  0.18163512141655408  0.6171697325422709  0.3384490860924614  1.0000
  H   H35       1.0  0.6816351212380544  0.8828302667976657  0.3384490859527126  1.0000
  H   H36       1.0  0.8183648789067135  0.3828302670176869  0.661550913887712  1.0000
  H   H37       1.0  0.2259200505902108  0.18557703060883984  0.7370607326600912  1.0000
  H   H38       1.0  0.2740799490473944  0.6855770314613451  0.2629392674527539  1.0000
  H   H39       1.0  0.7740799497330568  0.814422968951118  0.26293926732008227  1.0000
  H   H40       1.0  0.725920050411711  0.31442296917113904  0.7370607325203424  1.0000
  H   H41       1.0  0.7764878481436162  0.5307330924213068  0.5451829966775964  1.0000
  H   H42       1.0  0.7235121520117124  0.030733091568801572  0.4548170037581794  1.0000
  H   H43       1.0  0.22351215217965148  0.46926690821117734  0.45481700330257707  1.0000
  H   H44       1.0  0.27648784831155526  0.9692669079911562  0.545182996221994  1.0000
  H   H45       1.0  0.6395767378168532  0.597331799858355  0.5117260910946237  1.0000
  H   H46       1.0  0.8604232623384753  0.09733180007837611  0.4882739093411521  1.0000
  H   H47       1.0  0.36042326250641454  0.4026681997016028  0.4882739088855498  1.0000
  H   H48       1.0  0.1395767379847923  0.9026681994815816  0.5117260906390213  1.0000
  H   H49       1.0  0.6472392251233776  0.43619439220071266  0.5690807250645251  1.0000
  H   H50       1.0  0.8527607750213902  0.9361943919806915  0.43091927477589953  1.0000
  H   H51       1.0  0.3527607751998901  0.5638056084317714  0.43091927491564835  1.0000
  H   H52       1.0  0.14723922530187739  0.06380560865179256  0.5690807252042738  1.0000
  H   H53       1.0  0.8458134471004674  0.7166802250502963  0.6582843081678008  1.0000
  H   H54       1.0  0.6541865530548611  0.21668022527031733  0.34171569226797494  1.0000
  H   H55       1.0  0.154186552358638  0.28331977558218785  0.34171569180529554  1.0000
  H   H56       1.0  0.34581344726840657  0.7833197753621668  0.6582843077121985  1.0000
  H   H57       1.0  0.7244553049677548  0.8243598566716334  0.6847274419144634  1.0000
  H   H58       1.0  0.7755446951770131  0.3243598568916544  0.3152725579259612  1.0000
  H   H59       1.0  0.27554469449135055  0.1756401428883245  0.31527255805863286  1.0000
  H   H60       1.0  0.2244553051462546  0.6756401426683034  0.6847274420542122  1.0000
  H   H61       1.0  0.7583577078124755  0.8008561019550173  0.5834196945310953  1.0000
  H   H62       1.0  0.7416422923322924  0.3008561021750384  0.4165803053093294  1.0000
  H   H63       1.0  0.24164229251079214  0.19914389760494053  0.4165803054490781  1.0000
  H   H64       1.0  0.25835770799097524  0.6991438973849193  0.5834196946708441  1.0000
  H   H65       1.0  0.42166419660241033  0.656739068160763  0.7752799144206297  1.0000
  H   H66       1.0  0.07833580303519491  0.15673906838078416  0.22472008569221544  1.0000
  H   H67       1.0  0.5783358028566952  0.3432609313991947  0.2247200855524667  1.0000
  H   H68       1.0  0.9216641972880728  0.8432609311791737  0.775279914287958  1.0000
  H   H69       1.0  0.49357416996458586  0.5412496291369504  0.845388639259437  1.0000
  H   H70       1.0  0.006425829673019341  0.04124962935697153  0.15461136085340804  1.0000
  H   H71       1.0  0.5064258303586818  0.45875037042300737  0.1546113607207364  1.0000
  H   H72       1.0  0.9935741697860861  0.9587503712755125  0.8453886391196883  1.0000
  H   H73       1.0  0.5076309872029212  0.7320701744315432  0.8540697488666  1.0000
  H   H74       1.0  0.9923690129418468  0.2320701746515643  0.14593025097382462  1.0000
  H   H75       1.0  0.49236901225618424  0.2679298251284146  0.1459302511064963  1.0000
  H   H76       1.0  0.007630987381420921  0.7679298259809199  0.8540697490063488  1.0000
  H   H77       1.0  0.728330294692826  0.7701367430132272  0.8211659329656309  1.0000
  H   H78       1.0  0.7716697054625026  0.270136742160722  0.1788340674701449  1.0000
  H   H79       1.0  0.27166970563044174  0.2298632576192569  0.17883406701454257  1.0000
  H   H80       1.0  0.22833029486076506  0.7298632573992359  0.8211659325100286  1.0000
  H   H81       1.0  0.7826103372248203  0.6118465741969882  0.7739591636392915  1.0000
  H   H82       1.0  0.7173896629199475  0.11184657441700922  0.22604083620113316  1.0000
  H   H83       1.0  0.21738966309844737  0.38815342536296965  0.2260408363408819  1.0000
  H   H84       1.0  0.2826103374033201  0.8881534251429486  0.7739591637790402  1.0000
  H   H85       1.0  0.7041179481019727  0.5972982941360933  0.8627469977370538  1.0000
  H   H86       1.0  0.7958820520427952  0.09729829435611435  0.13725300210337082  1.0000
  H   H87       1.0  0.295882052221295  0.40270170649639087  0.1372530022431196  1.0000
  H   H88       1.0  0.20411794828047242  0.9027017062763698  0.8627469978768025  1.0000
  C   C1        1.0  0.45513876404282033  0.4176003669634485  0.6882893354058007  1.0000
  C   C2        1.0  0.04486123558422425  0.9176003678159538  0.31171066411169335  1.0000
  C   C3        1.0  0.5448612354162851  0.5823996325965093  0.3117106645672956  1.0000
  C   C4        1.0  0.9551387647390434  0.08239963281653039  0.6882893358684802  1.0000
  C   C5        1.0  0.3073143766925212  0.20205555988485518  0.7059069582659503  1.0000
  C   C6        1.0  0.192685622945084  0.7020555596648341  0.2940930418468948  1.0000
  C   C7        1.0  0.6926856227665843  0.7979444396751025  0.294093041707146  1.0000
  C   C8        1.0  0.8073143765140215  0.29794443989512376  0.7059069581262015  1.0000
  C   C9        1.0  0.5932831967325362  0.5975314313274979  0.6854397844744797  1.0000
  C   C10       1.0  0.9067168034122317  0.097531431547519  0.31456021536594486  1.0000
  C   C11       1.0  0.4067168035907314  0.40246856823245986  0.31456021550569363  1.0000
  C   C12       1.0  0.09328319691103597  0.9024685690849652  0.6854397846142285  1.0000
  C   C13       1.0  0.6855058961376461  0.5423268820812449  0.5610035017188979  1.0000
  C   C14       1.0  0.8144941040071217  0.042326881228739656  0.43899649812152675  1.0000
  C   C15       1.0  0.3144941041856215  0.4576731185512392  0.43899649826127546  1.0000
  C   C16       1.0  0.18550589545198368  0.9576731183312183  0.5610035018515696  1.0000
  C   C17       1.0  0.7569924015360399  0.7473225991253056  0.6416173544167728  1.0000
  C   C18       1.0  0.7430075986087279  0.24732259934532677  0.3583826454236517  1.0000
  C   C19       1.0  0.24300759878722772  0.25267740043465214  0.3583826455634005  1.0000
  C   C20       1.0  0.2569924008503775  0.7526774012871573  0.6416173545494445  1.0000
  C   C21       1.0  0.4999384968916293  0.6422741405554154  0.812072023782529  1.0000
  C   C22       1.0  6.150274597599051e-05  0.1422741407754365  0.18792797633031613  1.0000
  C   C23       1.0  0.5000615034316385  0.35772586007706875  0.18792797619764448  1.0000
  C   C24       1.0  0.9999384967131295  0.8577258598570476  0.8120720236427803  1.0000
  C   C25       1.0  0.7106920378132038  0.6571259466376226  0.8066775530647529  1.0000
  C   C26       1.0  0.7893079623421247  0.15712594685764372  0.1933224473710229  1.0000
  C   C27       1.0  0.28930796251006374  0.3428740529223352  0.19332244691542055  1.0000
  C   C28       1.0  0.21069203798114308  0.8428740537748404  0.8066775526091505  1.0000
  C   C29       1.0  0.32417291842806567  0.20032602646298794  0.9115545974729161  1.0000
  C   C30       1.0  0.17582708207370173  0.7003260262429668  0.08844540264700611  1.0000
  C   C31       1.0  0.675827081895202  0.7996739741694961  0.08844540250725737  1.0000
  C   C32       1.0  0.8241729182495658  0.29967397438951726  0.9115545973331673  1.0000
  C   C33       1.0  0.20391241652804298  0.20355506429659542  0.9057079864701779  1.0000
  C   C34       1.0  0.2960875839737244  0.7035550651491007  0.09429201364974422  1.0000
  C   C35       1.0  0.7960875837952247  0.7964449352633624  0.09429201350999548  1.0000
  C   C36       1.0  0.7039124163495432  0.29644493548338346  0.9057079863304291  1.0000
  C   C37       1.0  0.14026339721055636  0.13043199584812792  0.9625719480071407  1.0000
  C   C38       1.0  0.35973660242704886  0.6304319967006331  0.03742805210570451  1.0000
  C   C39       1.0  0.8597366031127112  0.86956800371183  0.03742805197303284  1.0000
  C   C40       1.0  0.6402633970320566  0.36956800393185096  0.9625719478673919  1.0000
  C   C41       1.0  0.19686476288640564  0.05644402823172621  0.02434874943990111  1.0000
  C   C42       1.0  0.30313523761536176  0.5564440280117051  0.9756512506800209  1.0000
  C   C43       1.0  0.803135237436862  0.9435559713282317  0.9756512505402722  1.0000
  C   C44       1.0  0.6968647627079059  0.44355597154825277  0.02434874930015236  1.0000
  C   C45       1.0  0.31753286278334153  0.05595333778722392  0.029738654185058232  1.0000
  C   C46       1.0  0.1824671368542637  0.5559533375672028  0.9702613459277868  1.0000
  C   C47       1.0  0.682467136675764  0.9440466628452603  0.9702613457880381  1.0000
  C   C48       1.0  0.8175328626048418  0.444046661992755  0.029738654045309485  1.0000
  C   C49       1.0  0.382130716831611  0.12824387912969784  0.973301486233534  1.0000
  C   C50       1.0  0.1178692836701564  0.628243879982203  0.026698513886388223  1.0000
  C   C51       1.0  0.6178692834916566  0.8717561204302601  0.026698513746639473  1.0000
  C   C52       1.0  0.8821307166531112  0.3717561206502811  0.9733014860937852  1.0000
  C   C53       1.0  0.510092629802565  0.1470981475160722  0.48413582776864317  1.0000
  C   C54       1.0  0.9899073703422029  0.6470981472960511  0.5158641720717815  1.0000
  C   C55       1.0  0.4899073705207026  0.8529018531164119  0.5158641722115302  1.0000
  C   C56       1.0  0.010092629116902594  0.35290185333643304  0.4841358279013148  1.0000
  C   C57       1.0  0.48188031667283293  0.05105273443433572  0.42278389721519744  1.0000
  C   C58       1.0  0.018119682954211715  0.551052735286841  0.5772161023022967  1.0000
  C   C59       1.0  0.5181196827862726  0.9489472651256221  0.5772161027578989  1.0000
  C   C60       1.0  0.9818803165048937  0.44894726534564317  0.42278389767079977  1.0000
  C   C61       1.0  0.528256641489659  0.09561590811878311  0.5615450700108625  1.0000
  C   C62       1.0  0.9717433586656695  0.595615907898762  0.43845493042491324  1.0000
  C   C63       1.0  0.4717433588336087  0.9043840914411748  0.4384549299693109  1.0000
  C   C64       1.0  0.028256641668158732  0.4043840916611958  0.5615450701506113  1.0000
  N   N1        1.0  0.5130597302254644  0.3299246693598553  0.7371617445553108  1.0000
  N   N2        1.0  0.9869402699193035  0.8299246691398342  0.26283825528511395  1.0000
  N   N3        1.0  0.4869402692336411  0.6700753312726287  0.2628382554177856  1.0000
  N   N4        1.0  0.013059730403964107  0.17007533149264992  0.7371617446950595  1.0000
  N   N5        1.0  0.49592849019713675  0.5355597815502708  0.654754581963493  1.0000
  N   N6        1.0  0.004071509440468431  0.035559781770291926  0.34524541814935195  1.0000
  N   N7        1.0  0.5040715092619686  0.464440218009687  0.34524541800960323  1.0000
  N   N8        1.0  0.9959284908827992  0.9644402188621922  0.6547545818308214  1.0000
  N   N9        1.0  0.6803757568719532  0.623522608392784  0.635178754661611  1.0000
  N   N10       1.0  0.8196242432728146  0.1235226075402788  0.3648212451788136  1.0000
  N   N11       1.0  0.3196242434513144  0.3764773922397001  0.36482124531856236  1.0000
  N   N12       1.0  0.18037575618629081  0.876477392019679  0.6351787547942828  1.0000
  N   N13       1.0  0.6013353096862927  0.6408403755719821  0.76231619203141  1.0000
  N   N14       1.0  0.8986646904690357  0.1408403757920033  0.23768380840436584  1.0000
  N   N15       1.0  0.398664690636975  0.35915962398797563  0.23768380794876348  1.0000
  N   N16       1.0  0.10133530985423185  0.8591596237679545  0.7623161915758077  1.0000
  O   O1        1.0  0.3883788462128104  0.2766134754958136  0.8560202486069689  1.0000
  O   O2        1.0  0.11162115342479484  0.7766134752757925  0.1439797515058762  1.0000
  O   O3        1.0  0.6116211532462951  0.7233865240641443  0.14397975136612745  1.0000
  O   O4        1.0  0.8883788468984728  0.2233865242841653  0.8560202484742973  1.0000
  P   P1        1.0  0.43393389177475467  0.20094292858734286  0.7738672145768033  1.0000
  P   P2        1.0  0.06606610786285055  0.7009429283673217  0.22613278553604174  1.0000
  P   P3        1.0  0.5660661085485129  0.7990570720451412  0.22613278540337006  1.0000
  P   P4        1.0  0.9339338915962548  0.29905707226516237  0.7738672144370546  1.0000
  S   S1        1.0  0.308824417899167  0.37590797621819855  0.6593221512848213  1.0000
  S   S2        1.0  0.19117558260260037  0.8759079770707038  0.3406778488351009  1.0000
  S   S3        1.0  0.6911755824241006  0.6240920233417593  0.34067784869535217  1.0000
  S   S4        1.0  0.8088244177312278  0.12409202356178035  0.6593221517404235  1.0000
  S   S5        1.0  0.5053650649664724  0.014995647949721148  0.7911182858388602  1.0000
  S   S6        1.0  0.9946349351782956  0.5149956477297  0.20888171400156433  1.0000
  S   S7        1.0  0.49463493535679537  0.9850043516102367  0.2088817141413131  1.0000
  S   S8        1.0  0.005365065144972102  0.48500435183025775  0.791118285978609  1.0000
