data_image0
_chemical_formula_structural       H32C46N2O8S2
_chemical_formula_sum              "H32 C46 N2 O8 S2"
_cell_length_a       4.828681780484009
_cell_length_b       9.423194889880484
_cell_length_c       19.827766904525483
_cell_angle_alpha    82.1483669427781
_cell_angle_beta     83.31785659054891
_cell_angle_gamma    87.2765859986357

_space_group_name_H-M_alt    "P 1"
_space_group_IT_number       1

loop_
  _space_group_symop_operation_xyz
  'x, y, z'

loop_
  _atom_site_type_symbol
  _atom_site_label
  _atom_site_symmetry_multiplicity
  _atom_site_fract_x
  _atom_site_fract_y
  _atom_site_fract_z
  _atom_site_occupancy
  H   H1        1.0  0.0901583954190426  0.13891035597966983  0.4197991607911448  1.0000
  H   H2        1.0  0.9098416039323379  0.8610896435811671  0.580200839459605  1.0000
  H   H3        1.0  0.08605265725591006  0.9148832234029585  0.021105418602774838  1.0000
  H   H4        1.0  0.9139473420032856  0.08511677723277294  0.9788945810779512  1.0000
  H   H5        1.0  0.3754029083931228  0.8692991393002779  0.9124279941424253  1.0000
  H   H6        1.0  0.6245970909676086  0.13070086026379715  0.08757200560351382  1.0000
  H   H7        1.0  0.7599173184582604  0.6816337226373683  0.916924753082929  1.0000
  H   H8        1.0  0.24008268079158465  0.3183662779951247  0.0830752471026078  1.0000
  H   H9        1.0  0.8492216535405003  0.5433627148939305  0.02976350633342041  1.0000
  H   H10       1.0  0.15077834779305183  0.45663728575628315  0.9702364937942544  1.0000
  H   H11       1.0  0.09399494255679865  0.8159983718490398  0.2993573864925639  1.0000
  H   H12       1.0  0.906005058878289  0.18400162772951756  0.700642613700324  1.0000
  H   H13       1.0  0.9864705808922649  0.6346211204148933  0.3143331748290366  1.0000
  H   H14       1.0  0.013529418459115707  0.3653788791459437  0.6856668254217133  1.0000
  H   H15       1.0  0.8015630575601435  0.7700629969490965  0.2623785871948046  1.0000
  H   H16       1.0  0.1984369418005879  0.22993700261497846  0.7376214125511344  1.0000
  H   H17       1.0  0.1419542009187649  0.3709660415347679  0.20782149535591138  1.0000
  H   H18       1.0  0.8580457984326156  0.629033958026069  0.7921785048948384  1.0000
  H   H19       1.0  0.13285953810601187  0.12564914727743426  0.17722509610446496  1.0000
  H   H20       1.0  0.8671404612547196  0.8743508522866408  0.8227749036414741  1.0000
  H   H21       1.0  0.4568184833279716  0.9341308170727188  0.2257204483680463  1.0000
  H   H22       1.0  0.5431815160327598  0.06586918249135609  0.7742795513778927  1.0000
  H   H23       1.0  0.7542696245854406  0.986536283621574  0.31313180003299035  1.0000
  H   H24       1.0  0.24573037684964713  0.013463715956983289  0.6868682001598976  1.0000
  H   H25       1.0  0.7657363124647674  0.056811804222827854  0.5850956488175295  1.0000
  H   H26       1.0  0.23426368688661314  0.9431881953380089  0.41490435143322046  1.0000
  H   H27       1.0  0.06466332294090033  0.3518125001848911  0.46536562974739143  1.0000
  H   H28       1.0  0.9353366764104801  0.6481874993759458  0.5346343705033584  1.0000
  H   H29       1.0  0.29069018986967987  0.4534742080586138  0.5568351918928172  1.0000
  H   H30       1.0  0.7093098115654078  0.5465257915199435  0.44316480830007066  1.0000
  H   H31       1.0  0.6548143689007506  0.3010227248934136  0.614989968637956  1.0000
  H   H32       1.0  0.3451856324328014  0.6989772757568  0.3850100314897187  1.0000
  C   C1        1.0  0.25610696185078385  0.8350227188089787  0.021465718375637967  1.0000
  C   C2        1.0  0.7438930374084118  0.16497728182675253  0.9785342813050879  1.0000
  C   C3        1.0  0.41759485959652465  0.8083896557981332  0.9611861096055747  1.0000
  C   C4        1.0  0.582405139754856  0.19161034376270375  0.038813890645175285  1.0000
  C   C5        1.0  0.6328942939011651  0.7037358228679185  0.9636352779148212  1.0000
  C   C6        1.0  0.36710570754327343  0.296264176713877  0.03636472177325566  1.0000
  C   C7        1.0  0.6849987809868435  0.6262179469645159  0.026132395330712318  1.0000
  C   C8        1.0  0.3150012203560593  0.3737820536889357  0.9738676042921516  1.0000
  C   C9        1.0  0.5235506623430839  0.6524158706044257  0.08657366798149428  1.0000
  C   C10       1.0  0.4764493390920037  0.3475841289741316  0.9134263322113935  1.0000
  C   C11       1.0  0.30778650666803165  0.7578172798827347  0.08434954186562195  1.0000
  C   C12       1.0  0.6922134926833489  0.24218271967810223  0.9156504583851279  1.0000
  C   C13       1.0  0.1359478591006731  0.7863200051777827  0.1482100813719956  1.0000
  C   C14       1.0  0.8640521401491719  0.21367999545471042  0.8517899188135413  1.0000
  C   C15       1.0  0.19042640231695157  0.6990147212140161  0.21391388948332224  1.0000
  C   C16       1.0  0.8095735970437797  0.3009852783500588  0.7860861102626169  1.0000
  C   C17       1.0  0.39436997451915945  0.5926554643875688  0.21525009337340728  1.0000
  C   C18       1.0  0.6056300248322213  0.4073445351732681  0.7847499068773427  1.0000
  C   C19       1.0  0.5850044362522665  0.5693599205844704  0.1523172891925944  1.0000
  C   C20       1.0  0.414995563099114  0.4306400789763666  0.8476827110581554  1.0000
  C   C21       1.0  0.007060356220156176  0.7304939994315341  0.2762500711697122  1.0000
  C   C22       1.0  0.9929396431312244  0.2695060001293028  0.7237499290810377  1.0000
  C   C23       1.0  0.4648648797727348  0.3192841571651584  0.27523842531599063  1.0000
  C   C24       1.0  0.5351351216717039  0.680715842416637  0.7247615743720863  1.0000
  C   C25       1.0  0.28339348021854693  0.28760657052487615  0.22927294242035678  1.0000
  C   C26       1.0  0.7166065191328336  0.7123934290359608  0.7707270578303931  1.0000
  C   C27       1.0  0.2773204803526197  0.14929551115537482  0.21233240991190075  1.0000
  C   C28       1.0  0.7226795210824679  0.8507044884231826  0.7876675902809871  1.0000
  C   C29       1.0  0.45155530171789404  0.04076650250923215  0.24110641402407398  1.0000
  C   C30       1.0  0.5484446976428373  0.9592334970548427  0.758893585721865  1.0000
  C   C31       1.0  0.6211513122888382  0.07009451927420451  0.28914586652702967  1.0000
  C   C32       1.0  0.3788486870625425  0.9299054802866322  0.7108541337237202  1.0000
  C   C33       1.0  0.6287881632563964  0.20802368052003123  0.3077824662368892  1.0000
  C   C34       1.0  0.3712118360949842  0.7919763190408056  0.6922175340138607  1.0000
  C   C35       1.0  0.8055284183228442  0.23369728159035819  0.3609154751123172  1.0000
  C   C36       1.0  0.19447158103788725  0.7663027179737167  0.6390845246336219  1.0000
  C   C37       1.0  0.6099009117069358  0.12349528104779606  0.5595448343947316  1.0000
  C   C38       1.0  0.3900990876537955  0.876504718516279  0.4404551653512074  1.0000
  C   C39       1.0  0.47072849619392787  0.07308213803254748  0.5097292972719897  1.0000
  C   C40       1.0  0.5292715031574527  0.9269178615282895  0.4902707029787602  1.0000
  C   C41       1.0  0.21968227860522238  0.2905235642475015  0.4943276640340511  1.0000
  C   C42       1.0  0.7803177228392161  0.7094764353342939  0.5056723356540259  1.0000
  C   C43       1.0  0.3462598651313631  0.34627719565363746  0.5440767913858876  1.0000
  C   C44       1.0  0.6537401342293683  0.6537228039104376  0.45592320836005146  1.0000
  C   C45       1.0  0.5470787308265491  0.2606676284451767  0.5765720211154235  1.0000
  C   C46       1.0  0.4529212684326464  0.7393323721905545  0.4234279785653024  1.0000
  N   N1        1.0  0.27842694261904266  0.15824675953723405  0.47757173057094576  1.0000
  N   N2        1.0  0.7215730587238602  0.8417532411162177  0.5224282690519182  1.0000
  O   O1        1.0  0.7974677052640885  0.34929061495402935  0.38449988833915916  1.0000
  O   O2        1.0  0.20253229618034993  0.6507093846277661  0.6155001113489178  1.0000
  O   O3        1.0  0.9668376142353441  0.1214148203373417  0.3814468454507731  1.0000
  O   O4        1.0  0.03316238511603648  0.8785851792234952  0.6185531547999767  1.0000
  O   O5        1.0  0.7927053945368455  0.4875668152550836  0.15498915378903622  1.0000
  O   O6        1.0  0.2072946047223502  0.5124331853806475  0.8450108458916897  1.0000
  O   O7        1.0  0.9421646319370482  0.8780199447375672  0.14715500050699382  1.0000
  O   O8        1.0  0.057835369498039385  0.12198005484098998  0.8528449996858939  1.0000
  S   S1        1.0  0.475486038961565  0.4969098907551168  0.29328577460161703  1.0000
  S   S2        1.0  0.5245139624735227  0.5030901088234405  0.7067142255912707  1.0000
