data_image0
_chemical_formula_structural       H28C40N4O10
_chemical_formula_sum              "H28 C40 N4 O10"
_cell_length_a       7.992317006813044
_cell_length_b       8.012198115163317
_cell_length_c       14.750334763022869
_cell_angle_alpha    92.80192154538281
_cell_angle_beta     90.90601934373024
_cell_angle_gamma    119.22323602928648

_space_group_name_H-M_alt    "P 1"
_space_group_IT_number       1

loop_
  _space_group_symop_operation_xyz
  'x, y, z'

loop_
  _atom_site_type_symbol
  _atom_site_label
  _atom_site_symmetry_multiplicity
  _atom_site_fract_x
  _atom_site_fract_y
  _atom_site_fract_z
  _atom_site_occupancy
  H   H1        1.0  0.9514045140232522  0.13567339188571717  0.41871977969143664  1.0000
  H   H2        1.0  0.0485954862974455  0.8643266070745861  0.5812802202551495  1.0000
  H   H3        1.0  0.5278143642863466  0.9649834586595524  0.19942363428560347  1.0000
  H   H4        1.0  0.47218563546421716  0.03501654171799344  0.8005763656990372  1.0000
  H   H5        1.0  0.7057463976145122  0.8355580935312735  0.10841904893262226  1.0000
  H   H6        1.0  0.2942536021360516  0.1644419068462723  0.8915809510520184  1.0000
  H   H7        1.0  0.36726498389477075  0.9105822950115129  0.9381572287189849  1.0000
  H   H8        1.0  0.6327350171147912  0.08941770538177246  0.06184277127804397  1.0000
  H   H9        1.0  0.3048847629422299  0.36538110062177437  0.006773471070830456  1.0000
  H   H10       1.0  0.695115236808334  0.6346188997557715  0.9932265289138101  1.0000
  H   H11       1.0  0.10198024597644198  0.3505593963733289  0.13443471367774654  1.0000
  H   H12       1.0  0.8980197550331199  0.6494406040199563  0.8655652863192823  1.0000
  H   H13       1.0  0.43670167420182376  0.6411062610298689  0.9083944651618809  1.0000
  H   H14       1.0  0.5632983268077383  0.3588937393634164  0.09160553483514793  1.0000
  H   H15       1.0  0.5083626513511195  0.09975129225295609  0.33504321601680237  1.0000
  H   H16       1.0  0.4916373483994444  0.9002487081245897  0.6649567839678383  1.0000
  H   H17       1.0  0.3527191908431139  0.14420053478434314  0.48816588959704627  1.0000
  H   H18       1.0  0.64728080890745  0.8557994655932026  0.5118341103875944  1.0000
  H   H19       1.0  0.3248937201025275  0.7801515237451657  0.4753569026105947  1.0000
  H   H20       1.0  0.6751062802181702  0.21984847521513765  0.5246430973359913  1.0000
  H   H21       1.0  0.8023867592286432  0.7121647746238396  0.43971939512985553  1.0000
  H   H22       1.0  0.19761324178091874  0.28783522576944565  0.5602806048671732  1.0000
  H   H23       1.0  0.30184526923492083  0.3788791281973415  0.260592693097013  1.0000
  H   H24       1.0  0.698154731085777  0.6211208707629619  0.7394073068495731  1.0000
  H   H25       1.0  0.6385814441606701  0.4642544743834125  0.3095936991706294  1.0000
  H   H26       1.0  0.3614185568488919  0.5357455260098728  0.6904063008263995  1.0000
  H   H27       1.0  0.14051069126424337  0.5403932532966714  0.34304373694740764  1.0000
  H   H28       1.0  0.8594893084863204  0.45960674708087434  0.6569562630372331  1.0000
  C   C1        1.0  0.00010095363685202609  0.0019548671690429575  0.2993083248450792  1.0000
  C   C2        1.0  0.9998990461137117  0.9980451332085029  0.7006916751395614  1.0000
  C   C3        1.0  0.9011070363111123  0.07526064801605101  0.34953917218232006  1.0000
  C   C4        1.0  0.09889296343945161  0.9247393523614948  0.6504608278023206  1.0000
  C   C5        1.0  0.9281932109058161  0.916377093441884  0.21180850709337384  1.0000
  C   C6        1.0  0.07180678884474773  0.08362290693566173  0.7881914928912668  1.0000
  C   C7        1.0  0.6608404819985365  0.9764138239435969  0.2264517283683319  1.0000
  C   C8        1.0  0.3391595190110255  0.023586176449688422  0.773548271628697  1.0000
  C   C9        1.0  0.7317209683646072  0.06413120431512732  0.31396357585790585  1.0000
  C   C10       1.0  0.26827903069709236  0.9358687946294364  0.6860364240762922  1.0000
  C   C11       1.0  0.1317320187977402  0.6286803007661536  0.1104622727619303  1.0000
  C   C12       1.0  0.8682679802639593  0.37131969817841015  0.8895377271722676  1.0000
  C   C13       1.0  0.20658832921171494  0.78483223363828  0.05558950922733788  1.0000
  C   C14       1.0  0.7934116705388489  0.21516776673926566  0.9444104907573028  1.0000
  C   C15       1.0  0.014121119897231972  0.6592294751186358  0.17915755309685574  1.0000
  C   C16       1.0  0.9858788798533319  0.3407705252589101  0.820842446887785  1.0000
  C   C17       1.0  0.7591295403611302  0.9034128671388703  0.17630672961324434  1.0000
  C   C18       1.0  0.24087045995956757  0.09658713182143305  0.8236932703333417  1.0000
  C   C19       1.0  0.1807304018628926  0.017232580793774224  0.3408982384285494  1.0000
  C   C20       1.0  0.8192695978876712  0.9827674195837716  0.6591017615560913  1.0000
  C   C21       1.0  0.14191526124676612  0.920816631150504  0.08903761086844506  1.0000
  C   C22       1.0  0.8580847385037976  0.07918336922704176  0.9109623891161956  1.0000
  C   C23       1.0  0.3152555488205887  0.7921159760433736  0.9821068771894846  1.0000
  C   C24       1.0  0.6847444502411107  0.20788402290119015  0.017893122744713195  1.0000
  C   C25       1.0  0.2781954333592175  0.48443442107836077  0.020913811726551303  1.0000
  C   C26       1.0  0.7218045663913463  0.515565579299185  0.9790861882580894  1.0000
  C   C27       1.0  0.16488144213992406  0.4756732861985377  0.09411054988516745  1.0000
  C   C28       1.0  0.8351185581807737  0.5243267127617656  0.9058894500614186  1.0000
  C   C29       1.0  0.3515724047046843  0.639405298975888  0.9656152845536694  1.0000
  C   C30       1.0  0.6484275950458794  0.36059470140165784  0.03438471543097133  1.0000
  C   C31       1.0  0.3835043783334528  0.7039093214444808  0.43578526818541163  1.0000
  C   C32       1.0  0.6164956214083173  0.2960906789193167  0.5642147324767073  1.0000
  C   C33       1.0  0.6549161846801034  0.6632837003455133  0.4160632520352531  1.0000
  C   C34       1.0  0.3450838143815961  0.33671629859905045  0.5839367478989448  1.0000
  C   C35       1.0  0.37607298578705745  0.4839475972540437  0.3172618120965509  1.0000
  C   C36       1.0  0.6239270152225046  0.5160524031392416  0.6827381879004778  1.0000
  C   C37       1.0  0.562598658356373  0.5287232893536328  0.3440412409515869  1.0000
  C   C38       1.0  0.4374013426531891  0.4712767110396527  0.6559587590454419  1.0000
  C   C39       1.0  0.28514467334211574  0.5717538199789455  0.36347302509881113  1.0000
  C   C40       1.0  0.714855326408448  0.4282461803986002  0.6365269748858297  1.0000
  N   N1        1.0  0.01933036671718089  0.83199737505966  0.1598328868621408  1.0000
  N   N2        1.0  0.980669634292381  0.16800262533362526  0.840167113134888  1.0000
  N   N3        1.0  0.5636012486263604  0.7451097383895594  0.4597460556741743  1.0000
  N   N4        1.0  0.43639875112420345  0.2548902619879863  0.5402539443104664  1.0000
  O   O1        1.0  0.6389354102879911  0.1321711254265079  0.36627976552118574  1.0000
  O   O2        1.0  0.36106458946257275  0.8678288749510379  0.6337202344634549  1.0000
  O   O3        1.0  0.31986834230611266  0.05820633629281423  0.28919816368711504  1.0000
  O   O4        1.0  0.680131657444451  0.9417936640847314  0.7108018362975256  1.0000
  O   O5        1.0  0.9284459220380316  0.5594936981345164  0.24129782901436075  1.0000
  O   O6        1.0  0.0715540777125322  0.44050630224302934  0.7587021709702799  1.0000
  O   O7        1.0  0.18383797395578713  0.07922829563610248  0.0636981550232179  1.0000
  O   O8        1.0  0.8161620257947766  0.9207717047414433  0.9363018449614228  1.0000
  O   O9        1.0  0.18276053831594913  0.9933367904892951  0.4255854340608961  1.0000
  O   O10       1.0  0.8172394607457504  0.006663208455268634  0.5744145658733019  1.0000
