data_image0
_chemical_formula_structural       H76C84N12O8S8
_chemical_formula_sum              "H76 C84 N12 O8 S8"
_cell_length_a       9.954269872919465
_cell_length_b       15.507363936449906
_cell_length_c       12.950190785860052
_cell_angle_alpha    90.0
_cell_angle_beta     108.68885796214403
_cell_angle_gamma    90.0

_space_group_name_H-M_alt    "P 1"
_space_group_IT_number       1

loop_
  _space_group_symop_operation_xyz
  'x, y, z'

loop_
  _atom_site_type_symbol
  _atom_site_label
  _atom_site_symmetry_multiplicity
  _atom_site_fract_x
  _atom_site_fract_y
  _atom_site_fract_z
  _atom_site_occupancy
  H   H1        1.0  0.5120233290122422  0.49483221206690153  0.24711412040901115  1.0000
  H   H2        1.0  0.9879766702686323  0.9948322121813663  0.25288587900565507  1.0000
  H   H3        1.0  0.487976670612927  0.5051677875171732  0.7528858791494333  1.0000
  H   H4        1.0  0.012023329356536923  0.005167788047563301  0.7471141205527895  1.0000
  H   H5        1.0  0.6386181338546185  0.5662349330282235  0.5099825326838177  1.0000
  H   H6        1.0  0.8613818666424906  0.06623493291375866  0.9900174676877991  1.0000
  H   H7        1.0  0.3613818657693947  0.4337650672007061  0.490017467646531  1.0000
  H   H8        1.0  0.13861813404203385  0.933765067315171  0.009982532904595453  1.0000
  H   H9        1.0  0.1872179253485456  0.6087371708489789  0.2377983163900932  1.0000
  H   H10       1.0  0.312782074464039  0.1087371707345141  0.2622016833891291  1.0000
  H   H11       1.0  0.8127820742766235  0.3912628293799507  0.7622016831683512  1.0000
  H   H12       1.0  0.6872179251611301  0.8912628294944155  0.7377983161693155  1.0000
  H   H13       1.0  0.9987928487504651  0.6393085756307855  0.063431186559877  1.0000
  H   H14       1.0  0.5012071515897647  0.1393085755163207  0.43656881388873936  1.0000
  H   H15       1.0  0.00120715193405936  0.36069142459814413  0.9365688140325177  1.0000
  H   H16       1.0  0.4987928480354045  0.860691424712609  0.5634311856697051  1.0000
  H   H17       1.0  0.042988486978439926  0.6166768910041626  0.8863727183010655  1.0000
  H   H18       1.0  0.457011512991024  0.11667689153455271  0.6136272814011573  1.0000
  H   H19       1.0  0.9570115126467292  0.3833231085799121  0.11362728125737902  1.0000
  H   H20       1.0  0.5429884866341452  0.8833231086943769  0.3863727181572872  1.0000
  H   H21       1.0  0.28373265024443944  0.5666943373492412  0.8874666392952659  1.0000
  H   H22       1.0  0.2162673497238683  0.06669433723477641  0.6125333611788611  1.0000
  H   H23       1.0  0.7162673493795736  0.43330566287968836  0.11253336103508282  1.0000
  H   H24       1.0  0.7837326499001448  0.9333056629941532  0.3874666391514875  1.0000
  H   H25       1.0  0.4691843433987697  0.5346843966504716  0.06205418641272963  1.0000
  H   H26       1.0  0.030815656413814934  0.03468439653600681  0.4379458133664926  1.0000
  H   H27       1.0  0.5308156562252434  0.46531560357845797  0.9379458139176192  1.0000
  H   H28       1.0  0.9691843432113543  0.9653156036929228  0.5620541861919519  1.0000
  H   H29       1.0  0.08467216209610512  0.45745465761113796  0.7984328578921981  1.0000
  H   H30       1.0  0.41532783787220273  0.9574546570807478  0.701567142581929  1.0000
  H   H31       1.0  0.9153278385884195  0.5425453426177916  0.20156714270019657  1.0000
  H   H32       1.0  0.5846721617518104  0.04254534250332684  0.29843285774841977  1.0000
  H   H33       1.0  0.2928492579475398  0.3616882078079369  0.8158916627514455  1.0000
  H   H34       1.0  0.20715074202076797  0.8616882079224017  0.6841083377226814  1.0000
  H   H35       1.0  0.7071507416764733  0.6383117924209927  0.1841083375789032  1.0000
  H   H36       1.0  0.7928492586637566  0.13831179230652788  0.31589166286971315  1.0000
  H   H37       1.0  0.3147300050188421  0.2786005969618753  0.6601250292770764  1.0000
  H   H38       1.0  0.18526999495062182  0.7786005970763401  0.8398749704251465  1.0000
  H   H39       1.0  0.6852699956668385  0.7213994032670543  0.33987497054341415  1.0000
  H   H40       1.0  0.8147300046745474  0.22139940315258952  0.160125029133298  1.0000
  H   H41       1.0  0.20431867275244203  0.24106432758782606  0.44809908597809356  1.0000
  H   H42       1.0  0.2956813270601426  0.7410643277022908  0.051900913801128705  1.0000
  H   H43       1.0  0.7956813268727272  0.7589356719962486  0.551900913580351  1.0000
  H   H44       1.0  0.7043186725638706  0.25893567188178385  0.94809908652922  1.0000
  H   H45       1.0  0.007228708042375589  0.2625422248864851  0.2793285748436539  1.0000
  H   H46       1.0  0.49277129176905293  0.7625422250009499  0.2206714257074725  1.0000
  H   H47       1.0  0.9927712915816376  0.7374577753424445  0.7206714254866948  1.0000
  H   H48       1.0  0.5072287078549602  0.2374577752279797  0.7793285746228762  1.0000
  H   H49       1.0  0.7971382789400312  0.35554672300173185  0.2727999266211415  1.0000
  H   H50       1.0  0.7028617203408434  0.8555467231161966  0.2272000727935247  1.0000
  H   H51       1.0  0.202861720685138  0.6444532772271978  0.7272000729373028  1.0000
  H   H52       1.0  0.2971382792843259  0.14445327711273298  0.7727999267649198  1.0000
  H   H53       1.0  0.28246996390077933  0.3946788967539474  0.23793772643890237  1.0000
  H   H54       1.0  0.21753003697231663  0.8946788968684122  0.2620622736023658  1.0000
  H   H55       1.0  0.7175300367849012  0.6053211034749822  0.762062273381588  1.0000
  H   H56       1.0  0.782469963713364  0.10532110336051737  0.7379377262181246  1.0000
  H   H57       1.0  0.4078549895523273  0.33366569980587846  0.3443402847422001  1.0000
  H   H58       1.0  0.09214501026025732  0.8336656999203432  0.1556597150370222  1.0000
  H   H59       1.0  0.592145010071686  0.6663343004230512  0.6556597155881487  1.0000
  H   H60       1.0  0.9078549893649117  0.16633430030858634  0.8443402845214222  1.0000
  H   H61       1.0  0.2623861982186594  0.27953433206084755  0.24616692087787445  1.0000
  H   H62       1.0  0.23761380159392523  0.7795343321753124  0.25383307890134776  1.0000
  H   H63       1.0  0.7376138014053537  0.720465668168082  0.7538330794524742  1.0000
  H   H64       1.0  0.7623861990917554  0.22046566805361725  0.7461669209191427  1.0000
  H   H65       1.0  0.36770185918228177  0.3150882580704166  0.9842562483017467  1.0000
  H   H66       1.0  0.13229814078718213  0.8150882581848815  0.515743751400476  1.0000
  H   H67       1.0  0.6322981404417314  0.6849117421585129  0.015743752028601884  1.0000
  H   H68       1.0  0.8677018598984986  0.18491174204404814  0.48425624842001447  1.0000
  H   H69       1.0  0.2601469566758787  0.38417576993836  0.038668220970513714  1.0000
  H   H70       1.0  0.23985304313670586  0.8841757694079698  0.4613317788087085  1.0000
  H   H71       1.0  0.7398530440098019  0.6158242302905695  0.9613317788499767  1.0000
  H   H72       1.0  0.7601469564873073  0.11582423017610478  0.5386682215216401  1.0000
  H   H73       1.0  0.2383589262109442  0.26789001451339095  0.03638174271730791  1.0000
  H   H74       1.0  0.2616410736016404  0.7678900146278558  0.4636182570619143  1.0000
  H   H75       1.0  0.7616410734142249  0.7321099857155386  0.9636182568411366  1.0000
  H   H76       1.0  0.7383589260235287  0.2321099856010739  0.5363817424965301  1.0000
  C   C1        1.0  0.3405030193652409  0.5700014887264947  0.16103455649655501  1.0000
  C   C2        1.0  0.15949698044618765  0.07000148861202983  0.3389654440545714  1.0000
  C   C3        1.0  0.6594969802587723  0.42999851150243495  0.8389654438337938  1.0000
  C   C4        1.0  0.8405030202383369  0.9299985116168997  0.6610345565378231  1.0000
  C   C5        1.0  0.20750169545435113  0.5996868873465637  0.16103731145480626  1.0000
  C   C6        1.0  0.2924983054187449  0.09968688723209897  0.33896268858646195  1.0000
  C   C7        1.0  0.7924983052313295  0.4003131128823658  0.8389626883656841  1.0000
  C   C8        1.0  0.7075016952657796  0.9003131123519758  0.6610373120059326  1.0000
  C   C9        1.0  0.10171883506895042  0.6161132194455521  0.06226309290942154  1.0000
  C   C10       1.0  0.3982811647436342  0.11611321933108722  0.43773690686980066  1.0000
  C   C11       1.0  0.8982811645562186  0.38388678078337757  0.937736906649023  1.0000
  C   C12       1.0  0.6017188348815351  0.8838867802529875  0.5622630926886437  1.0000
  C   C13       1.0  0.12621566445649446  0.6031794235520691  0.9629803149569007  1.0000
  C   C14       1.0  0.3737843355118134  0.10317942343760436  0.5370196855172262  1.0000
  C   C15       1.0  0.87378433622803  0.39682057667686044  0.037019685635493946  1.0000
  C   C16       1.0  0.6262156641121998  0.8968205767913253  0.46298031481312246  1.0000
  C   C17       1.0  0.2591074492736557  0.5739833969510678  0.963141706294138  1.0000
  C   C18       1.0  0.2408925506946521  0.07398339683660304  0.5368582941799889  1.0000
  C   C19       1.0  0.7408925503503574  0.4260166032778618  0.03685829403621062  1.0000
  C   C20       1.0  0.759107448929361  0.9260166033923266  0.4631417061503598  1.0000
  C   C21       1.0  0.36543974858818945  0.5574205013453044  0.06140863297833613  1.0000
  C   C22       1.0  0.1345602522849066  0.05742050123083964  0.43859136706293206  1.0000
  C   C23       1.0  0.6345602520974912  0.4425794988836252  0.9385913668421543  1.0000
  C   C24       1.0  0.8654397484007741  0.94257949899809  0.5614086327575584  1.0000
  C   C25       1.0  0.4877281139081985  0.5826101616641572  0.35640408555534475  1.0000
  C   C26       1.0  0.01227188696374149  0.0826101621945473  0.1435959152578276  1.0000
  C   C27       1.0  0.5122718867763261  0.4173898379199175  0.6435959150370498  1.0000
  C   C28       1.0  0.9877281137207831  0.9173898380343823  0.856404085334567  1.0000
  C   C29       1.0  0.7894969688985406  0.4516527418007712  0.46878222240959927  1.0000
  C   C30       1.0  0.7105030314428453  0.951652741915236  0.03121777726711288  1.0000
  C   C31       1.0  0.21050303178714005  0.5483472584281585  0.531217777410891  1.0000
  C   C32       1.0  0.28949696818232384  0.0483472583136936  0.9687822222913316  1.0000
  C   C33       1.0  0.852963975013676  0.4756364241032028  0.5870756789556345  1.0000
  C   C34       1.0  0.647036025484589  0.9756364242176676  0.9129243206440781  1.0000
  C   C35       1.0  0.14703602461149307  0.5243635761257268  0.41292432060281  1.0000
  C   C36       1.0  0.3529639752010916  0.024363576011261975  0.08707567917641228  1.0000
  C   C37       1.0  0.9854602306300081  0.4250206558000511  0.628736158584854  1.0000
  C   C38       1.0  0.5145397698671009  0.9250206559145158  0.871263841786763  1.0000
  C   C39       1.0  0.014539768994004958  0.5749793444288787  0.37126384174549476  1.0000
  C   C40       1.0  0.4854602308174235  0.07497934431441375  0.1287361588056317  1.0000
  C   C41       1.0  0.09092782551644299  0.42014586790510045  0.7287906749582129  1.0000
  C   C42       1.0  0.4090721744530209  0.9201458680195653  0.7712093247440099  1.0000
  C   C43       1.0  0.9090721741087262  0.5798541323238292  0.27120932460023156  1.0000
  C   C44       1.0  0.5909278251721483  0.07985413220936438  0.22879067481443463  1.0000
  C   C45       1.0  0.2085936542296088  0.3659928046609906  0.7378679036403852  1.0000
  C   C46       1.0  0.291406345738699  0.8659928047754554  0.7621320968337417  1.0000
  C   C47       1.0  0.7914063453944042  0.634007195567939  0.2621320966899635  1.0000
  C   C48       1.0  0.7085936538853141  0.13400719545347423  0.23786790349660694  1.0000
  C   C49       1.0  0.2215158293002708  0.3186337355755114  0.650387095551334  1.0000
  C   C50       1.0  0.2784841717297045  0.8186337356899761  0.8496129044129346  1.0000
  C   C51       1.0  0.7784841713854099  0.6813662640085634  0.3496129042691564  1.0000
  C   C52       1.0  0.7215158289559761  0.18136626453895344  0.15038709540755577  1.0000
  C   C53       1.0  0.1159212529010647  0.3232809567470355  0.546518227191561  1.0000
  C   C54       1.0  0.3840787470683992  0.8232809562166453  0.9534817725106618  1.0000
  C   C55       1.0  0.8840787467241045  0.676719043481894  0.4534817723668836  1.0000
  C   C56       1.0  0.6159212525556139  0.1767190433674293  0.046518227819686876  1.0000
  C   C57       1.0  0.1155597747375645  0.281886042522371  0.4485311169543893  1.0000
  C   C58       1.0  0.3844402261355315  0.7818860426368358  0.051468883086878844  1.0000
  C   C59       1.0  0.8844402259481159  0.7181139577065586  0.5514688828661011  1.0000
  C   C60       1.0  0.6155597745501492  0.21811395759209384  0.9485311167336116  1.0000
  C   C61       1.0  0.0030342430172229425  0.29444343659643946  0.35341786576857326  1.0000
  C   C62       1.0  0.4969657567953616  0.7944434367109043  0.146582134010649  1.0000
  C   C63       1.0  0.9969657566067901  0.7055565636324901  0.6465821345617755  1.0000
  C   C64       1.0  0.5030342428298076  0.20555656351802531  0.8534178655477954  1.0000
  C   C65       1.0  0.8849597116371382  0.3476577574430885  0.3483312798595081  1.0000
  C   C66       1.0  0.6150402887030916  0.8476577575575533  0.1516687205891082  1.0000
  C   C67       1.0  0.11504028798687489  0.6523422421409861  0.6516687204708406  1.0000
  C   C68       1.0  0.3849597119814329  0.15234224267137625  0.8483312800032864  1.0000
  C   C69       1.0  0.8838284029189044  0.3896140978415166  0.4422860999174203  1.0000
  C   C70       1.0  0.6161715974213253  0.8896140979559815  0.05771390053119607  1.0000
  C   C71       1.0  0.11617159670510865  0.610385902387413  0.5577139004129283  1.0000
  C   C72       1.0  0.38382840326319917  0.11038590227294817  0.9422861000611985  1.0000
  C   C73       1.0  0.9989650283008219  0.376786998998982  0.5396745010959922  1.0000
  C   C74       1.0  0.501034971136932  0.8767869991134468  0.9603254982416745  1.0000
  C   C75       1.0  0.0010349713243473465  0.6232130005850928  0.4603254984624522  1.0000
  C   C76       1.0  0.49896502848823726  0.1232130011154828  0.03967450131677001  1.0000
  C   C77       1.0  0.3383511302288695  0.3330583864005444  0.2592533481495854  1.0000
  C   C78       1.0  0.16164886958255903  0.8330583865150092  0.24074665240154106  1.0000
  C   C79       1.0  0.6616488693951437  0.6669416131835303  0.7407466521807633  1.0000
  C   C80       1.0  0.838351130041454  0.16694161306906546  0.7592533479288076  1.0000
  C   C81       1.0  0.31319494932825825  0.3214307177175278  0.04513719657374743  1.0000
  C   C82       1.0  0.18680505048432633  0.8214307178319926  0.4548628032054748  1.0000
  C   C83       1.0  0.6868050502969109  0.678569281866547  0.9548628029846971  1.0000
  C   C84       1.0  0.8131949502013542  0.178569282396937  0.5451371966150156  1.0000
  N   N1        1.0  0.45106473343392556  0.5472579836765487  0.2563586955936769  1.0000
  N   N2        1.0  0.04893526637865906  0.04725798356208375  0.24364130418554536  1.0000
  N   N3        1.0  0.5489352661912437  0.45274201655238105  0.7436413039647676  1.0000
  N   N4        1.0  0.9510647332453539  0.9527420166668458  0.7563586961448033  1.0000
  N   N5        1.0  0.6020357856965085  0.542516489873906  0.43167176795964274  1.0000
  N   N6        1.0  0.8979642146448775  0.042516489759441195  0.06832823171706949  1.0000
  N   N7        1.0  0.39796421392866077  0.45748351035502366  0.5683282315988019  1.0000
  N   N8        1.0  0.10203578604080314  0.9574835104694883  0.9316717681034209  1.0000
  N   N9        1.0  0.6747948737803681  0.4825049596219729  0.39864913537982305  1.0000
  N   N10       1.0  0.8252051265610179  0.9825049590915828  0.10135086429688912  1.0000
  N   N11       1.0  0.32520512584480116  0.5174950406069567  0.6013508641786215  1.0000
  N   N12       1.0  0.17479487412466277  0.017495040492491922  0.8986491355236014  1.0000
  O   O1        1.0  0.801617868650189  0.5287367900567287  0.6356094496989907  1.0000
  O   O2        1.0  0.6983821318469201  0.02873678994226393  0.8643905506726262  1.0000
  O   O3        1.0  0.1983821309738241  0.47126321017220085  0.36439055063135795  1.0000
  O   O4        1.0  0.30161786883876046  0.9712632102866657  0.13560944914786424  1.0000
  O   O5        1.0  0.5442312894273225  0.39046712225328706  0.185464891410038  1.0000
  O   O6        1.0  0.9557687098523958  0.8904671223677518  0.31453510877653235  1.0000
  O   O7        1.0  0.4557687101966906  0.6095328773307876  0.8145351089203106  1.0000
  O   O8        1.0  0.044231289772773276  0.10953287786117774  0.6854648907819122  1.0000
  S   S1        1.0  0.4203989076120509  0.6693771438227013  0.3991699179782967  1.0000
  S   S2        1.0  0.07960109220053366  0.16937714370823653  0.10083008180092558  1.0000
  S   S3        1.0  0.5796010920131183  0.3306228564062283  0.6008300815801478  1.0000
  S   S4        1.0  0.9203989084851469  0.8306228565206931  0.8991699180195648  1.0000
  S   S5        1.0  0.44895152244094716  0.31269287738855306  0.17611001022112213  1.0000
  S   S6        1.0  0.05104847737163746  0.8126928768581629  0.32388998955810006  1.0000
  S   S7        1.0  0.5510484782447335  0.6873071228403765  0.8238899895993683  1.0000
  S   S8        1.0  0.9489515222523757  0.18730712272591174  0.6761100107722485  1.0000
