data_image0
_chemical_formula_structural       H22C26N4O6S2Br2
_chemical_formula_sum              "H22 C26 N4 O6 S2 Br2"
_cell_length_a       6.829502159998465
_cell_length_b       8.215561943707844
_cell_length_c       13.865229065814077
_cell_angle_alpha    98.29366889025434
_cell_angle_beta     97.5935713486886
_cell_angle_gamma    109.99113553887832

_space_group_name_H-M_alt    "P 1"
_space_group_IT_number       1

loop_
  _space_group_symop_operation_xyz
  'x, y, z'

loop_
  _atom_site_type_symbol
  _atom_site_label
  _atom_site_symmetry_multiplicity
  _atom_site_fract_x
  _atom_site_fract_y
  _atom_site_fract_z
  _atom_site_occupancy
  H   H1        1.0  0.6424304473998473  0.8944754899035336  0.7090434031193101  1.0000
  H   H2        1.0  0.3575695522133273  0.10552450937109528  0.2909565966012014  1.0000
  H   H3        1.0  0.6662477363425128  0.9408548813590646  0.5368995509679022  1.0000
  H   H4        1.0  0.3337522635786065  0.05914511817922541  0.46310044949573986  1.0000
  H   H5        1.0  0.755669438804944  0.732722773208049  0.41758301777925744  1.0000
  H   H6        1.0  0.24433056080823048  0.26727722606657983  0.5824169819412539  1.0000
  H   H7        1.0  0.8193077349249185  0.47469617304760653  0.46715788207828546  1.0000
  H   H8        1.0  0.1806922652106848  0.5253038275233289  0.5328421176452955  1.0000
  H   H9        1.0  0.7626352671595967  0.969203378202123  0.9271482288540673  1.0000
  H   H10       1.0  0.23736473245357784  0.030796621072505883  0.07285177086644412  1.0000
  H   H11       1.0  0.7707828975691113  0.8033625768560919  0.06163232836807276  1.0000
  H   H12       1.0  0.22921710287443695  0.19663742397850487  0.9383676720986389  1.0000
  H   H13       1.0  0.7598593481835445  0.2532243742094755  0.263576266319037  1.0000
  H   H14       1.0  0.24014065142962987  0.7467756250651533  0.7364237334014744  1.0000
  H   H15       1.0  0.7553685525909052  0.4035046137703307  0.12073930651556737  1.0000
  H   H16       1.0  0.24463144785264318  0.596495387064266  0.8792606939511444  1.0000
  H   H17       1.0  0.8520538153593912  0.013483550372634028  0.33110831943163643  1.0000
  H   H18       1.0  0.14794618508415697  0.9865164504619627  0.6688916810350752  1.0000
  H   H19       1.0  0.8516677875168128  0.8249676821003816  0.24851074028218897  1.0000
  H   H20       1.0  0.1483322124043066  0.17503231743790845  0.7514892601814531  1.0000
  H   H21       1.0  0.608894756378605  0.8465541643325776  0.2672721600779173  1.0000
  H   H22       1.0  0.3911052432345695  0.15344583494205133  0.7327278396425942  1.0000
  C   C1        1.0  0.7114448491176288  0.6062202173203202  0.7837993080680908  1.0000
  C   C2        1.0  0.28855515049554564  0.3937797819543087  0.21620069165242056  1.0000
  C   C3        1.0  0.7172715495171434  0.6583400819064683  0.6847570422973329  1.0000
  C   C4        1.0  0.28272845092640475  0.34165991892812836  0.31524295816937864  1.0000
  C   C5        1.0  0.6800041996136739  0.8028171749779143  0.6565152686790374  1.0000
  C   C6        1.0  0.31999579999950056  0.19718282429671463  0.34348473104147403  1.0000
  C   C7        1.0  0.6947605341888659  0.8284246500279503  0.5597595096155583  1.0000
  C   C8        1.0  0.3052394659467375  0.17157535054298526  0.4402404901080228  1.0000
  C   C9        1.0  0.7453264781580302  0.7116276884156565  0.4927173098423022  1.0000
  C   C10       1.0  0.25467352197757315  0.28837231215527914  0.5072826898812789  1.0000
  C   C11       1.0  0.7830340397401108  0.5660910508704321  0.5203459770399015  1.0000
  C   C12       1.0  0.21696596070343743  0.4339089499641647  0.4796540234268101  1.0000
  C   C13       1.0  0.7686083288335983  0.5436006663538818  0.616871100894482  1.0000
  C   C14       1.0  0.23139167077957626  0.45639933292074697  0.38312889882602946  1.0000
  C   C15       1.0  0.766106772833561  0.028262970077679847  0.0031341643396755516  1.0000
  C   C16       1.0  0.23389322677961327  0.9717370291969489  0.9968658353808358  1.0000
  C   C17       1.0  0.7694889630646911  0.9365357476652053  0.07934299731216081  1.0000
  C   C18       1.0  0.2305110365484834  0.06346425160942346  0.9206570024083507  1.0000
  C   C19       1.0  0.7697518861842915  0.014956769020736267  0.17622866722756317  1.0000
  C   C20       1.0  0.230248113736828  0.9850432305175538  0.8237713332360788  1.0000
  C   C21       1.0  0.7618696021472496  0.184854813867807  0.19060752243167642  1.0000
  C   C22       1.0  0.23813039829629856  0.8151451869667897  0.8093924780350352  1.0000
  C   C23       1.0  0.7599222854902563  0.27125785788715806  0.11186875043648473  1.0000
  C   C24       1.0  0.24007771464534686  0.7287421426837773  0.8881312492870963  1.0000
  C   C25       1.0  0.7728273167042191  0.9201559055465101  0.2602514741235043  1.0000
  C   C26       1.0  0.22717268373932917  0.0798440952880866  0.7397485263432072  1.0000
  N   N1        1.0  0.7571157049619277  0.4550416298534095  0.7820454121269714  1.0000
  N   N2        1.0  0.24288429465124664  0.5449583694212192  0.2179545875935399  1.0000
  N   N3        1.0  0.7641489206676259  0.1929525766055134  0.020611021512231594  1.0000
  N   N4        1.0  0.2358510797759224  0.8070474242290834  0.9793889789544801  1.0000
  O   O1        1.0  0.6619088138335163  0.20320660279938565  0.6320555216124935  1.0000
  O   O2        1.0  0.338091186302087  0.7967933977715499  0.36794447811108755  1.0000
  O   O3        1.0  0.03692590302876571  0.40118229166910463  0.6899964952600284  1.0000
  O   O4        1.0  0.9630740974147824  0.598817709165492  0.31000350520668324  1.0000
  O   O5        1.0  0.671989568069638  0.685911428744822  0.8567067965467953  1.0000
  O   O6        1.0  0.3280104315435364  0.3140885705298069  0.1432932031737162  1.0000
  S   S1        1.0  0.8141088183824486  0.37929919426156883  0.6764562343451805  1.0000
  S   S2        1.0  0.18589118206109964  0.6207008065730278  0.323543766121531  1.0000
  Br  Br1       1.0  0.7642992711795475  0.32552099912464577  0.9022914642622305  1.0000
  Br  Br2       1.0  0.23570072874157186  0.6744790004136443  0.0977085362014114  1.0000
