data_image0
_chemical_formula_structural       H44C36N8O12
_chemical_formula_sum              "H44 C36 N8 O12"
_cell_length_a       9.026438366825564
_cell_length_b       9.309020641085384
_cell_length_c       10.497129079604466
_cell_angle_alpha    90.0
_cell_angle_beta     92.272780558478
_cell_angle_gamma    90.0

_space_group_name_H-M_alt    "P 1"
_space_group_IT_number       1

loop_
  _space_group_symop_operation_xyz
  'x, y, z'

loop_
  _atom_site_type_symbol
  _atom_site_label
  _atom_site_symmetry_multiplicity
  _atom_site_fract_x
  _atom_site_fract_y
  _atom_site_fract_z
  _atom_site_occupancy
  H   H1        1.0  0.13288479185333144  0.23374884790740916  0.13031452765202217  1.0000
  H   H2        1.0  0.3671152081660219  0.7337488478491118  0.3696854723369195  1.0000
  H   H3        1.0  0.8671152081853752  0.7662511519759959  0.8696854723258612  1.0000
  H   H4        1.0  0.6328847918726848  0.2662511520342934  0.6303145276409639  1.0000
  H   H5        1.0  0.8598807178781269  0.5220093807240092  0.20694818114103847  1.0000
  H   H6        1.0  0.6401192817934387  0.022009380782306586  0.2930518188347926  1.0000
  H   H7        1.0  0.14011928216057967  0.477990619159396  0.7930518188368448  1.0000
  H   H8        1.0  0.359880718245268  0.9779906191010985  0.7069481811430908  1.0000
  H   H9        1.0  0.926977501714972  0.7773759151484971  0.18080323084421973  1.0000
  H   H10       1.0  0.5730224979565938  0.27737591520679455  0.3191967691316113  1.0000
  H   H11       1.0  0.07302249832373466  0.222624084734908  0.8191967691336637  1.0000
  H   H12       1.0  0.426977502082113  0.7226240846766105  0.680803230846272  1.0000
  H   H13       1.0  0.18329269544851126  0.8408862212048244  0.10464922746434713  1.0000
  H   H14       1.0  0.31670730346212017  0.34088622126312174  0.39535077248340605  1.0000
  H   H15       1.0  0.8167073034814735  0.15911377867858076  0.8953507724723477  1.0000
  H   H16       1.0  0.6832926954678646  0.6591137786202833  0.6046492274532889  1.0000
  H   H17       1.0  0.35484180676495686  0.6370055152556418  0.05611893020700563  1.0000
  H   H18       1.0  0.14515819325439644  0.13700551531393923  0.44388106978193603  1.0000
  H   H19       1.0  0.6451581932737497  0.3629944846277633  0.9438810697708776  1.0000
  H   H20       1.0  0.8548418067843103  0.8629944856436929  0.5561189301959474  1.0000
  H   H21       1.0  0.9068215082134706  0.027021333360226763  0.29091901078972193  1.0000
  H   H22       1.0  0.593178491458095  0.5270213333019292  0.20908098918610912  1.0000
  H   H23       1.0  0.09317849182523595  0.9729786675974053  0.7090809891881614  1.0000
  H   H24       1.0  0.40682150858061167  0.4729786665814758  0.7909190107917742  1.0000
  H   H25       1.0  0.04258418266143688  0.030939642429068524  0.1712717513056139  1.0000
  H   H26       1.0  0.4574158173579165  0.5309396423707711  0.3287282486833278  1.0000
  H   H27       1.0  0.9574158173772699  0.9690603574543366  0.8287282486722695  1.0000
  H   H28       1.0  0.5425841826807902  0.4690603575126341  0.6712717512945555  1.0000
  H   H29       1.0  0.8497362821239358  0.026007081661360707  0.12768646598187  1.0000
  H   H30       1.0  0.6502637186563517  0.5260070816030632  0.3723135340351495  1.0000
  H   H31       1.0  0.1502637179147708  0.9739929192962712  0.8723135339960134  1.0000
  H   H32       1.0  0.34973628138235496  0.4739929182803419  0.6276864659427339  1.0000
  H   H33       1.0  0.3219082853575562  0.3724490226928694  0.06666534975133354  1.0000
  H   H34       1.0  0.17809171466179713  0.872449022634572  0.43333465023760814  1.0000
  H   H35       1.0  0.6780917146811505  0.6275509771905358  0.9333346502265498  1.0000
  H   H36       1.0  0.8219082853769095  0.12755097724883316  0.5666653497402753  1.0000
  H   H37       1.0  0.609296124302735  0.10928178475726176  0.06267854787583248  1.0000
  H   H38       1.0  0.8907038753688306  0.6092817846989643  0.43732145209999856  1.0000
  H   H39       1.0  0.39070387573597154  0.8907182151261434  0.937321452102051  1.0000
  H   H40       1.0  0.10929612466987611  0.3907182151844408  0.5626785478778847  1.0000
  H   H41       1.0  0.5458000772693692  0.11368952554783499  0.9026368101878744  1.0000
  H   H42       1.0  0.9541999227886908  0.6136895254895376  0.5973631897789505  1.0000
  H   H43       1.0  0.45419992276933735  0.8863104743355701  0.09736318979000891  1.0000
  H   H44       1.0  0.04580007725001588  0.38631047439386756  0.40263681019893277  1.0000
  C   C1        1.0  0.07274874362918467  0.4455563941596761  0.1496260685831379  1.0000
  C   C2        1.0  0.42725125639016864  0.9455563941013787  0.3503739314058038  1.0000
  C   C3        1.0  0.9272512564095219  0.5544436067979559  0.8503739313947454  1.0000
  C   C4        1.0  0.572748743648538  0.05444360578202647  0.6496260685720796  1.0000
  C   C5        1.0  0.9686389708388585  0.5524319709103577  0.1759717102208006  1.0000
  C   C6        1.0  0.531361029941429  0.0524319709686551  0.32402828979621895  1.0000
  C   C7        1.0  0.031361029199848046  0.4475680289730475  0.8240282897570828  1.0000
  C   C8        1.0  0.46863897009727773  0.94756802891475  0.6759717101816645  1.0000
  C   C9        1.0  0.00837321452024568  0.6952799149927928  0.16010826080847249  1.0000
  C   C10       1.0  0.4916267843903858  0.1952799150510903  0.3398917391392808  1.0000
  C   C11       1.0  0.9916267844097391  0.30472008489061225  0.8398917391282225  1.0000
  C   C12       1.0  0.5083732145395989  0.8047200848323148  0.6601082607974141  1.0000
  C   C13       1.0  0.14894442666185623  0.7299763016969415  0.11826510886676762  1.0000
  C   C14       1.0  0.3510555733535633  0.22997630175523892  0.38173489207467537  1.0000
  C   C15       1.0  0.8510555733729166  0.2700236981864636  0.8817348920636172  1.0000
  C   C16       1.0  0.6489444255724877  0.7700236981281662  0.6182651088145209  1.0000
  C   C17       1.0  0.24476829013615065  0.6178925873913788  0.09226603401644001  1.0000
  C   C18       1.0  0.2552317098832027  0.11789258744967628  0.40773396597250167  1.0000
  C   C19       1.0  0.7552317099025561  0.3821074124920263  0.9077339659614434  1.0000
  C   C20       1.0  0.7447682901555039  0.8821074124337288  0.5922660340053817  1.0000
  C   C21       1.0  0.921955377861295  0.23023381434355783  0.19884071240817344  1.0000
  C   C22       1.0  0.5780446218102707  0.7302338142852604  0.30115928756765764  1.0000
  C   C23       1.0  0.07804462217741165  0.7697661855398473  0.80115928756971  1.0000
  C   C24       1.0  0.421955378228436  0.26976618559814475  0.6988407124102257  1.0000
  C   C25       1.0  0.9329631353234417  0.06881174988192021  0.19676311885980502  1.0000
  C   C26       1.0  0.5670368643481241  0.5688117498236228  0.3032368811160261  1.0000
  C   C27       1.0  0.06703686471526503  0.9311882500014849  0.8032368811180783  1.0000
  C   C28       1.0  0.4329631356905826  0.4311882500597823  0.6967631188618573  1.0000
  C   C29       1.0  0.38513625276394037  0.17029869103557604  0.0357082405494832  1.0000
  C   C30       1.0  0.11486374725541294  0.6702986909772787  0.46429175943945855  1.0000
  C   C31       1.0  0.6148637472747663  0.829701308847829  0.9642917594284002  1.0000
  C   C32       1.0  0.8851362527832937  0.3297013089061265  0.5357082405384249  1.0000
  C   C33       1.0  0.5150141973107588  0.08005323532219728  0.9982861946537235  1.0000
  C   C34       1.0  0.9849858016385792  0.5800532352638998  0.5017138052719131  1.0000
  C   C35       1.0  0.484985801619226  0.9199467645612077  0.0017138052829714315  1.0000
  C   C36       1.0  0.01501419729140548  0.4199467646195053  0.4982861946647818  1.0000
  N   N1        1.0  0.20816052574898047  0.47932898121490725  0.10816704185335203  1.0000
  N   N2        1.0  0.2918394742703728  0.9793289811566097  0.39183295813558966  1.0000
  N   N3        1.0  0.7918394742897262  0.5206710186684979  0.8918329581245313  1.0000
  N   N4        1.0  0.7081605257683338  0.020671018726795304  0.6081670418422936  1.0000
  N   N5        1.0  0.048321287203775966  0.29897226005887345  0.16208566694407825  1.0000
  N   N6        1.0  0.4516787128155773  0.798972260000576  0.33791433304486346  1.0000
  N   N7        1.0  0.9516787128349307  0.7010277398245317  0.8379143330338052  1.0000
  N   N8        1.0  0.5483212872231292  0.20102773988282915  0.6620856669330198  1.0000
  O   O1        1.0  0.8086943881672533  0.29332418471054444  0.23141152937749485  1.0000
  O   O2        1.0  0.6913056115043125  0.7933241846522471  0.26858847059833624  1.0000
  O   O3        1.0  0.19130561187145342  0.7066758162470875  0.7685884706003885  1.0000
  O   O4        1.0  0.3086943885343942  0.2066758152311581  0.7314115293795471  1.0000
  O   O5        1.0  0.4133942527640495  0.3092056458975037  0.034790445855402495  1.0000
  O   O6        1.0  0.08660574725530386  0.8092056469134331  0.4652095541335392  1.0000
  O   O7        1.0  0.5866057472746571  0.6907943539859014  0.9652095541224809  1.0000
  O   O8        1.0  0.9133942527834028  0.1907943540441989  0.5347904458443442  1.0000
  O   O9        1.0  0.264805881884244  0.11742463167130213  0.06579181430038172  1.0000
  O   O10       1.0  0.23519411813510935  0.6174246316130046  0.43420818568855996  1.0000
  O   O11       1.0  0.7351941181544626  0.8825753682121029  0.9342081856775016  1.0000
  O   O12       1.0  0.7648058819035974  0.38257536827040045  0.5657918142893235  1.0000
