data_image0
_chemical_formula_structural       H34C24N4O6
_chemical_formula_sum              "H34 C24 N4 O6"
_cell_length_a       5.33532853430166
_cell_length_b       6.537230294984978
_cell_length_c       16.929542726649395
_cell_angle_alpha    92.93395822797393
_cell_angle_beta     90.07318949159541
_cell_angle_gamma    102.30441114479963

_space_group_name_H-M_alt    "P 1"
_space_group_IT_number       1

loop_
  _space_group_symop_operation_xyz
  'x, y, z'

loop_
  _atom_site_type_symbol
  _atom_site_label
  _atom_site_symmetry_multiplicity
  _atom_site_fract_x
  _atom_site_fract_y
  _atom_site_fract_z
  _atom_site_occupancy
  H   H1        1.0  0.5905944981461382  0.39052270254932125  0.3092409438358852  1.0000
  H   H2        1.0  0.40940550016509586  0.6094772975990276  0.6907590559530314  1.0000
  H   H3        1.0  0.08872469055236397  0.5407260256641584  0.4412810827805402  1.0000
  H   H4        1.0  0.9112753096343696  0.4592739745003635  0.558718917601055  1.0000
  H   H5        1.0  0.8813245146086646  0.8292239408224799  0.4069851344777  1.0000
  H   H6        1.0  0.11867548518848382  0.1707760577726445  0.5930148652826581  1.0000
  H   H7        1.0  0.013599069035632615  0.020198001888676348  0.28065445300537695  1.0000
  H   H8        1.0  0.9864009311536186  0.9798019982742199  0.7193455467855047  1.0000
  H   H9        1.0  0.35529748685379975  0.9060118558090724  0.19946299647410812  1.0000
  H   H10       1.0  0.6447025133354515  0.09398814435382395  0.8005370033167736  1.0000
  H   H11       1.0  0.7830851525579935  0.20247358492466708  0.45651566624738654  1.0000
  H   H12       1.0  0.21691484723915483  0.7975264136704572  0.5434843335129718  1.0000
  H   H13       1.0  0.7155241867350847  0.13481221419751627  0.3546674486250762  1.0000
  H   H14       1.0  0.2844758115761494  0.8651877859508325  0.6453325511638405  1.0000
  H   H15       1.0  0.5297417379057572  0.9885655245776153  0.429492875061485  1.0000
  H   H16       1.0  0.47025826228349404  0.011434475585281026  0.5705071247293967  1.0000
  H   H17       1.0  0.5914246019546265  0.6182470630394904  0.2118026495456222  1.0000
  H   H18       1.0  0.40857539823210715  0.3817529371250314  0.788197350835973  1.0000
  H   H19       1.0  0.15110642045984085  0.5569703986238661  0.10423749671612909  1.0000
  H   H20       1.0  0.8488935797294104  0.4430296015390302  0.8957625030747526  1.0000
  H   H21       1.0  0.8945734004814268  0.39472888832946235  0.05180802877343976  1.0000
  H   H22       1.0  0.10542659970782449  0.605271111833434  0.9481919710174419  1.0000
  H   H23       1.0  0.994680793063555  0.08054476662467844  0.1203609057493163  1.0000
  H   H24       1.0  0.005319207125696388  0.9194552335382179  0.8796390940415653  1.0000
  H   H25       1.0  0.2630986165080989  0.24899849740003013  0.1653784518980593  1.0000
  H   H26       1.0  0.7369013836786348  0.7510015027644917  0.8346215484835358  1.0000
  H   H27       1.0  0.44155162588407565  0.34525004924153774  0.03161816787826037  1.0000
  H   H28       1.0  0.558448374302658  0.6547499509229839  0.9683818325033349  1.0000
  H   H29       1.0  0.17066561999401925  0.18350497394219084  0.9853987888490894  1.0000
  H   H30       1.0  0.8293343801927144  0.8164950262223308  0.014601211532505695  1.0000
  H   H31       1.0  0.5601630465115651  0.032439811102845155  0.08902716005217798  1.0000
  H   H32       1.0  0.4398369536776862  0.9675601890600513  0.9109728397387037  1.0000
  H   H33       1.0  0.2816681923616256  0.8697664071673876  0.046821781286323465  1.0000
  H   H34       1.0  0.7183318074355227  0.13023359142773666  0.9531782184740347  1.0000
  C   C1        1.0  0.3308893465506006  0.5715913492721372  0.3391166259377184  1.0000
  C   C2        1.0  0.6691106536386506  0.4284086508907592  0.6608833738531632  1.0000
  C   C3        1.0  0.14173634472743202  0.6261671786500064  0.38854731510636237  1.0000
  C   C4        1.0  0.8582636554618193  0.37383282151289  0.6114526846845193  1.0000
  C   C5        1.0  0.02683841675919499  0.7878815494063118  0.36798964232561837  1.0000
  C   C6        1.0  0.9731615834275387  0.2121184507582098  0.6320103580559768  1.0000
  C   C7        1.0  0.10001569381569039  0.8933241449131546  0.2991259741463245  1.0000
  C   C8        1.0  0.8999843063735609  0.10667585524974174  0.7008740256445571  1.0000
  C   C9        1.0  0.2887602496493222  0.8300637101118468  0.2536557694808906  1.0000
  C   C10       1.0  0.711239748661912  0.169936290036502  0.746344230308026  1.0000
  C   C11       1.0  0.4420378242774312  0.28780708451357645  0.4160072569334551  1.0000
  C   C12       1.0  0.5579621759093025  0.7121929156509453  0.58399274344814  1.0000
  C   C13       1.0  0.6285953853574184  0.14452502274824156  0.4128693306052335  1.0000
  C   C14       1.0  0.37140461483183285  0.855474977414655  0.587130669185648  1.0000
  C   C15       1.0  0.8294994190356335  0.43855101428311444  0.17373207732256726  1.0000
  C   C16       1.0  0.1705005811536176  0.561448985879782  0.8262679224683144  1.0000
  C   C17       1.0  0.00772989997632788  0.4087686971610588  0.10704776765740939  1.0000
  C   C18       1.0  0.9922701002129235  0.5912313030018376  0.8929522321334722  1.0000
  C   C19       1.0  0.13942282687574944  0.22514517852361887  0.11221750507691135  1.0000
  C   C20       1.0  0.8605771729213988  0.7748548200715054  0.8877824946834469  1.0000
  C   C21       1.0  0.29590453409423456  0.199889318054922  0.03818038003811311  1.0000
  C   C22       1.0  0.7040954638223791  0.8001106805272802  0.9618196203109937  1.0000
  C   C23       1.0  0.42709823229095883  0.01418640215819044  0.03800812527188348  1.0000
  C   C24       1.0  0.5729017675061895  0.9858135964369339  0.9619918744884748  1.0000
  N   N1        1.0  0.40156092644993463  0.673603724676761  0.27252043762254236  1.0000
  N   N2        1.0  0.5984390737393166  0.32639627548613537  0.7274795621683392  1.0000
  N   N3        1.0  0.46072018462607495  0.4141396260467673  0.3525437404467191  1.0000
  N   N4        1.0  0.5392798151710733  0.5858603725483569  0.6474562593136391  1.0000
  O   O1        1.0  0.28946263744424633  0.2911477096615847  0.47081267021513795  1.0000
  O   O2        1.0  0.7105373627424872  0.7088522905029369  0.5291873301664571  1.0000
  O   O3        1.0  0.7131476607883819  0.5948880843575747  0.16331613559890545  1.0000
  O   O4        1.0  0.28685233940086935  0.40511191580532174  0.8366838641919763  1.0000
  O   O5        1.0  0.7956896083136208  0.3264628702504891  0.2315067952150466  1.0000
  O   O6        1.0  0.2043103918756305  0.6735371299124071  0.768493204575835  1.0000
