data_image0
_chemical_formula_structural       H96C92N4O12Cl8
_chemical_formula_sum              "H96 C92 N4 O12 Cl8"
_cell_length_a       11.724775621257415
_cell_length_b       13.141556030117794
_cell_length_c       16.34624707173916
_cell_angle_alpha    118.51104073396294
_cell_angle_beta     91.01766565108534
_cell_angle_gamma    72.64905706871028

_space_group_name_H-M_alt    "P 1"
_space_group_IT_number       1

loop_
  _space_group_symop_operation_xyz
  'x, y, z'

loop_
  _atom_site_type_symbol
  _atom_site_label
  _atom_site_symmetry_multiplicity
  _atom_site_fract_x
  _atom_site_fract_y
  _atom_site_fract_z
  _atom_site_occupancy
  H   H1        1.0  0.535826757347208  0.5280709602753875  0.9325101424853608  1.0000
  H   H2        1.0  0.46417324236594115  0.4719290398844531  0.06748985765131402  1.0000
  H   H3        1.0  0.5995583385978104  0.3648170092740764  0.8787271293606939  1.0000
  H   H4        1.0  0.4004416612572448  0.6351829904232628  0.12127287007203297  1.0000
  H   H5        1.0  0.39977152215958234  0.5024906511812474  0.8069321532941561  1.0000
  H   H6        1.0  0.600228478402933  0.4975093489892604  0.19306784684635184  1.0000
  H   H7        1.0  0.4593812234068869  0.33932326085371206  0.7580050312641466  1.0000
  H   H8        1.0  0.540618776306262  0.6606767393061286  0.24199496887252822  1.0000
  H   H9        1.0  0.03680040546666045  0.1317577570003776  0.44127153615255515  1.0000
  H   H10       1.0  0.963199595237761  0.8682422427076287  0.5587284632840048  1.0000
  H   H11       1.0  0.08872447544076419  0.1872404695703066  0.5532855744864258  1.0000
  H   H12       1.0  0.9112755242723849  0.8127595305895341  0.44671442565024916  1.0000
  H   H13       1.0  0.021014244324009085  0.4009609006192373  0.5724420029954123  1.0000
  H   H14       1.0  0.97898575538914  0.5990390995406031  0.4275579971412625  1.0000
  H   H15       1.0  0.13874647016701358  0.2886615206879932  0.4763291827380193  1.0000
  H   H16       1.0  0.8612535296880415  0.7113384790093461  0.5236708166947076  1.0000
  H   H17       1.0  0.3112908666462964  0.11235795141074072  0.14919541444714088  1.0000
  H   H18       1.0  0.6887091330668527  0.8876420487490998  0.850804585689534  1.0000
  H   H19       1.0  0.2945542106041117  0.3107853491395047  0.26795892041327735  1.0000
  H   H20       1.0  0.7054457899584037  0.6892146510310031  0.7320410797272306  1.0000
  H   H21       1.0  0.14019542427638354  0.3784779926615877  0.3200869060645836  1.0000
  H   H22       1.0  0.8598045762861319  0.6215220075089201  0.6799130940759245  1.0000
  H   H23       1.0  0.1990449054246971  0.44048653269468446  0.26284499031500813  1.0000
  H   H24       1.0  0.8009550945621225  0.5595134666730803  0.7371550098295101  1.0000
  H   H25       1.0  0.9196067453401615  0.14685433454989902  0.8949836897827439  1.0000
  H   H26       1.0  0.08039325437298751  0.8531456656099414  0.105016310353931  1.0000
  H   H27       1.0  0.4127008970964293  0.9611667363248779  0.07901541182127025  1.0000
  H   H28       1.0  0.5872991028903902  0.03883326304288703  0.920984588323248  1.0000
  H   H29       1.0  0.5867075269515042  0.8048779946830091  0.9666430626471454  1.0000
  H   H30       1.0  0.41329247276164494  0.19512200547683128  0.033356937489529455  1.0000
  H   H31       1.0  0.4962175447317781  0.7379501128839542  0.8816317491848955  1.0000
  H   H32       1.0  0.5037824559726434  0.2620498868240522  0.11836825025166448  1.0000
  H   H33       1.0  0.4998166875366191  0.8862539704807606  0.9134886615705408  1.0000
  H   H34       1.0  0.50018331217653  0.11374602967907997  0.08651133856613408  1.0000
  H   H35       1.0  0.48072336274348193  0.7600166074925051  0.07343678940576386  1.0000
  H   H36       1.0  0.5192766369696673  0.2399833926673354  0.926563210730911  1.0000
  H   H37       1.0  0.3261326928701546  0.8423946365048182  0.12135206156908729  1.0000
  H   H38       1.0  0.6738673076923609  0.1576053636656894  0.8786479385714207  1.0000
  H   H39       1.0  0.3663549481847165  0.7171223085494007  0.004147357696507439  1.0000
  H   H40       1.0  0.6336450518021032  0.2828776908183639  0.9958526424480109  1.0000
  H   H41       1.0  0.8796568444256107  0.1593482912187918  0.7638202338099453  1.0000
  H   H42       1.0  0.1203431561369048  0.8406517089517158  0.2361797663305626  1.0000
  H   H43       1.0  0.7239009270270652  0.19923496416362085  0.669346241420614  1.0000
  H   H44       1.0  0.27609907353545016  0.8007650360068868  0.33065375871989394  1.0000
  H   H45       1.0  0.6044851341392189  0.05944298102360856  0.5950803062820249  1.0000
  H   H46       1.0  0.39551486598950664  0.9405570178816548  0.4049196931585453  1.0000
  H   H47       1.0  0.642193928922681  0.8764842668423605  0.6157927919011528  1.0000
  H   H48       1.0  0.357806070790468  0.12351573331748007  0.38420720823552207  1.0000
  H   H49       1.0  0.8004003690828696  0.8345988447324907  0.7097792783871495  1.0000
  H   H50       1.0  0.19959963147964582  0.165401155438017  0.29022072175335845  1.0000
  H   H51       1.0  0.9086161959613863  0.36848084656796226  0.05724622075858297  1.0000
  H   H52       1.0  0.09138380375176282  0.6315191535918782  0.9427537793780919  1.0000
  H   H53       1.0  0.24324981278982707  0.6951611248444358  0.8183995051311462  1.0000
  H   H54       1.0  0.756750186923322  0.30483887531540477  0.18160049500552877  1.0000
  H   H55       1.0  0.9812883109064353  0.8783438182996698  0.7798978491496756  1.0000
  H   H56       1.0  0.018711688948619777  0.1216561813976695  0.22010215028305125  1.0000
  H   H57       1.0  0.9828931736508332  0.6956670348420464  0.15371268212203273  1.0000
  H   H58       1.0  0.017106826062315953  0.30433296531779414  0.8462873180146421  1.0000
  H   H59       1.0  0.2156483528701404  0.4168771427525788  0.0771469381950792  1.0000
  H   H60       1.0  0.7843516468430088  0.5831228574072616  0.9228530619415956  1.0000
  H   H61       1.0  0.1118579056912858  0.3944217791553492  0.9958748369088474  1.0000
  H   H62       1.0  0.8881420948712297  0.6055782210151585  0.004125163231660544  1.0000
  H   H63       1.0  0.14465139480803096  0.5339045784665781  0.04922900592259304  1.0000
  H   H64       1.0  0.8553486051787887  0.46609542090118666  0.9507709942219252  1.0000
  H   H65       1.0  0.7625190309946008  0.537907923319327  0.3991992793811398  1.0000
  H   H66       1.0  0.23748096871854818  0.4620920768405135  0.600800720755535  1.0000
  H   H67       1.0  0.890043528936725  0.847628543089673  0.19471205763274801  1.0000
  H   H68       1.0  0.10995647176769646  0.15237145661833357  0.805287941803812  1.0000
  H   H69       1.0  0.7628904051522974  0.0732153336627037  0.3841305408683398  1.0000
  H   H70       1.0  0.23710959470275755  0.9267846660346357  0.6158694585643871  1.0000
  H   H71       1.0  0.8427103812945782  0.07472966270266704  0.29362770967689594  1.0000
  H   H72       1.0  0.15728961841857092  0.9252703374571734  0.706372290459779  1.0000
  H   H73       1.0  0.9195329877526537  0.9912278010956938  0.34886026502890793  1.0000
  H   H74       1.0  0.08046701210240158  0.008772198601645492  0.6511397344038189  1.0000
  H   H75       1.0  0.6183938527711187  0.9861084573852257  0.24152827217805428  1.0000
  H   H76       1.0  0.3816061469420305  0.013891542774614749  0.7584717279586206  1.0000
  H   H77       1.0  0.7247115965517505  0.9836859357161478  0.16352729273456768  1.0000
  H   H78       1.0  0.27528840316139847  0.01631406444369275  0.8364727074021071  1.0000
  H   H79       1.0  0.6960577864363352  0.8468811026408789  0.13751984691271105  1.0000
  H   H80       1.0  0.3039422141261804  0.15311889752962884  0.8624801532277969  1.0000
  H   H81       1.0  0.7097304364637312  0.4648252256629305  0.4804140963143998  1.0000
  H   H82       1.0  0.2902695632494177  0.5351747744969101  0.5195859038222751  1.0000
  H   H83       1.0  0.6384529762687088  0.4183028783545185  0.5949606467336263  1.0000
  H   H84       1.0  0.36154702358634627  0.5816971213428208  0.4050393526991006  1.0000
  H   H85       1.0  0.4645239898411074  0.5706288673070385  0.7212065118258935  1.0000
  H   H86       1.0  0.5354760098720418  0.4293711328528019  0.2787934883107814  1.0000
  H   H87       1.0  0.35756228016868424  0.7709213334185311  0.7294667052631765  1.0000
  H   H88       1.0  0.6424377195444648  0.22907866674130933  0.27053329487349836  1.0000
  H   H89       1.0  0.4270491031550203  0.8180559459255226  0.6127097336362685  1.0000
  H   H90       1.0  0.5729508965581287  0.18194405423431806  0.38729026650040643  1.0000
  H   H91       1.0  0.910394914944399  0.3405514106711483  0.23244607060633662  1.0000
  H   H92       1.0  0.0896050849106562  0.659448589026191  0.7675539288263902  1.0000
  H   H93       1.0  0.5527714844006981  0.010698881815746148  0.44208989082606187  1.0000
  H   H94       1.0  0.4472285161618174  0.9893011183547615  0.5579101093144462  1.0000
  H   H95       1.0  0.553998356199896  0.7662813679446333  0.485374798414865  1.0000
  H   H96       1.0  0.446001643513253  0.23371863221520722  0.5146252017218098  1.0000
  C   C1        1.0  0.039438556655933606  0.2323956295800296  0.04688370297505392  1.0000
  C   C2        1.0  0.9605614430572155  0.7676043705798109  0.9531162971616209  1.0000
  C   C3        1.0  0.07067334041513439  0.31398412632113587  0.1302183985134225  1.0000
  C   C4        1.0  0.9293266592980147  0.6860158738387047  0.8697816016232524  1.0000
  C   C5        1.0  0.16929304327230932  0.2693907438294288  0.16839757234998542  1.0000
  C   C6        1.0  0.8307069564408397  0.7306092563304116  0.8316024277866895  1.0000
  C   C7        1.0  0.23428682017998362  0.14495930034925894  0.11986871962254081  1.0000
  C   C8        1.0  0.7657131795331654  0.8550406998105816  0.8801312805141341  1.0000
  C   C9        1.0  0.2756551936107381  0.9306597390970991  0.9907058049519556  1.0000
  C   C10       1.0  0.7243448069517775  0.06934026107340877  0.00929419518855241  1.0000
  C   C11       1.0  0.23458951426756247  0.849946628951413  0.9159508544033768  1.0000
  C   C12       1.0  0.7654104854455868  0.1500533712084274  0.08404914573329803  1.0000
  C   C13       1.0  0.1293998971440018  0.8888061562670218  0.8775743003821251  1.0000
  C   C14       1.0  0.8706001034185135  0.11119384390348598  0.12242569975838291  1.0000
  C   C15       1.0  0.0645325621372219  0.016908166851201705  0.9159223151345685  1.0000
  C   C16       1.0  0.9354674384252935  0.9830918333193063  0.08407768500593962  1.0000
  C   C17       1.0  0.10118775847595698  0.10400664762423131  0.9986059307778643  1.0000
  C   C18       1.0  0.898812241237192  0.8959933525356094  0.0013940693588105544  1.0000
  C   C19       1.0  0.20431642477948095  0.06015611748359942  0.036274692949011506  1.0000
  C   C20       1.0  0.7956835749336681  0.9398438826762411  0.9637253071876635  1.0000
  C   C21       1.0  0.901961124527724  0.5007808412687453  0.24535897103668497  1.0000
  C   C22       1.0  0.09803887518542513  0.499219158891095  0.7546410290999898  1.0000
  C   C23       1.0  0.9997808101782106  0.4470411355889967  0.17338756739692354  1.0000
  C   C24       1.0  0.0002191895349384388  0.5529588645708439  0.8266124327397514  1.0000
  C   C25       1.0  0.0289264408349768  0.5197421305466241  0.14074913348641868  1.0000
  C   C26       1.0  0.9710735597275386  0.4802578696238835  0.8592508666540893  1.0000
  C   C27       1.0  0.9595089476165986  0.6424674882038451  0.18113909938342182  1.0000
  C   C28       1.0  0.040491052096550455  0.3575325119559954  0.818860900753253  1.0000
  C   C29       1.0  0.7862795978437912  0.8255478729717137  0.2878451179860501  1.0000
  C   C30       1.0  0.21372040286063013  0.1744521267362927  0.71215488145051  1.0000
  C   C31       1.0  0.6878621100192641  0.8757046154402437  0.35621703805890653  1.0000
  C   C32       1.0  0.3121378905432512  0.12429538473026419  0.6437829620816015  1.0000
  C   C33       1.0  0.6543155254490299  0.8070911889609701  0.393304462666063  1.0000
  C   C34       1.0  0.34568447440602523  0.19290881073636898  0.6066955367666638  1.0000
  C   C35       1.0  0.7288177104903879  0.6830603108690404  0.3631833692309907  1.0000
  C   C36       1.0  0.27118228922276116  0.3169396892908001  0.6368166309056842  1.0000
  C   C37       1.0  0.8312724157213083  0.6272244099963836  0.2891583671148586  1.0000
  C   C38       1.0  0.1687275839918407  0.3727755901634568  0.7108416330218161  1.0000
  C   C39       1.0  0.8601438409740987  0.6988986300512289  0.25341131779762244  1.0000
  C   C40       1.0  0.1398561587390505  0.30110137010861165  0.7465886823390524  1.0000
  C   C41       1.0  0.2029905838096637  0.35382344864758625  0.25912617585133524  1.0000
  C   C42       1.0  0.7970094159034853  0.6461765515122543  0.7408738242853395  1.0000
  C   C43       1.0  0.9688674929091027  0.05094909827619842  0.8707351524362131  1.0000
  C   C44       1.0  0.031132506804046358  0.949050901883642  0.12926484770046173  1.0000
  C   C45       1.0  0.3943548113026659  0.8829612245284271  0.020496109707372437  1.0000
  C   C46       1.0  0.605645188410483  0.11703877563141352  0.9795038904293025  1.0000
  C   C47       1.0  0.5002796204865116  0.8241299748399431  0.9405734589120042  1.0000
  C   C48       1.0  0.49972037950030795  0.17587002452782158  0.05942654123251413  1.0000
  C   C49       1.0  0.39125346411258144  0.7951936994971797  0.056755537207220715  1.0000
  C   C50       1.0  0.6087465360161443  0.20480629940808381  0.9432444622333496  1.0000
  C   C51       1.0  0.13066683216536884  0.4633304494932722  0.061724739532349845  1.0000
  C   C52       1.0  0.8693331675477801  0.5366695506665684  0.9382752606043251  1.0000
  C   C53       1.0  0.7019506449751102  0.6261206715491919  0.4119496662548549  1.0000
  C   C54       1.0  0.2980493555874052  0.3738793286213158  0.5880503338856531  1.0000
  C   C55       1.0  0.8088027573873483  0.902353652167733  0.24783886107288114  1.0000
  C   C56       1.0  0.19119724232580074  0.0976463479921077  0.7521611390637938  1.0000
  C   C57       1.0  0.8344126039785509  0.01722947596364195  0.32319117597397207  1.0000
  C   C58       1.0  0.16558739573459824  0.9827705241961985  0.6768088241627027  1.0000
  C   C59       1.0  0.7052307198492711  0.93191373328234  0.19485362046900734  1.0000
  C   C60       1.0  0.2947692807132443  0.06808626688816767  0.8051463796715006  1.0000
  C   C61       1.0  0.8473070470468433  0.995509666126381  0.7445185967865446  1.0000
  C   C62       1.0  0.1526929526663058  0.0044903340334594725  0.25548140335013025  1.0000
  C   C63       1.0  0.826261503870247  0.0984308397073191  0.733068175570761  1.0000
  C   C64       1.0  0.1737384958429022  0.9015691604525213  0.26693182456591397  1.0000
  C   C65       1.0  0.738958895025213  0.12013247054027848  0.6790538785351538  1.0000
  C   C66       1.0  0.26104110482984194  0.8798675291570608  0.3209461208975732  1.0000
  C   C67       1.0  0.6722900514957103  0.04108879207781136  0.6369394229247436  1.0000
  C   C68       1.0  0.32770994906680506  0.9589112080926963  0.36306057721576435  1.0000
  C   C69       1.0  0.6940378419416365  0.9384609907744118  0.6483010666435008  1.0000
  C   C70       1.0  0.30596215876278476  0.06153900893359476  0.35169893279305914  1.0000
  C   C71       1.0  0.7818579360898343  0.9147234202609109  0.7010102068128679  1.0000
  C   C72       1.0  0.21814206362331479  0.08527657989892952  0.298989793323807  1.0000
  C   C73       1.0  0.5724749177204087  0.6453277652316106  0.5396608175180799  1.0000
  C   C74       1.0  0.42752508284210655  0.35467223493889705  0.460339182622428  1.0000
  C   C75       1.0  0.6327485210731008  0.5324220047338516  0.5344282598119726  1.0000
  C   C76       1.0  0.3672514794894148  0.46757799543665607  0.4655717403285353  1.0000
  C   C77       1.0  0.5920191828243365  0.5062708849558121  0.599339339450764  1.0000
  C   C78       1.0  0.40798081773817896  0.4937291152146956  0.40066066068974393  1.0000
  C   C79       1.0  0.4935065063698944  0.5912199655891626  0.6696058713707239  1.0000
  C   C80       1.0  0.5064934933432548  0.4087800345706779  0.3303941287659509  1.0000
  C   C81       1.0  0.4340185178388236  0.7037065417547315  0.6746665740633546  1.0000
  C   C82       1.0  0.5659814818743254  0.29629345840510896  0.3253334260733203  1.0000
  C   C83       1.0  0.4728959332443456  0.730733291954994  0.6097163547398209  1.0000
  C   C84       1.0  0.5271040666107094  0.26926670774234507  0.3902836446929059  1.0000
  C   C85       1.0  0.5546917480851882  0.44126653536822474  0.8664441685580615  1.0000
  C   C86       1.0  0.4453082516279608  0.5587334647916159  0.13355583157861345  1.0000
  C   C87       1.0  0.44180831785832986  0.42819198935220304  0.8220880404505998  1.0000
  C   C88       1.0  0.5581916827041857  0.5718080108183047  0.1779119596899081  1.0000
  C   C89       1.0  0.024412524916514  0.21220482855427372  0.5109668993164413  1.0000
  C   C90       1.0  0.9755874752122117  0.7877951703509897  0.489033100124129  1.0000
  C   C91       1.0  0.04375717567982259  0.3165240108976004  0.5042442586749167  1.0000
  C   C92       1.0  0.9562428248826929  0.6834759892729073  0.4957557414655913  1.0000
  N   N1        1.0  0.9340739039653734  0.9689475866121625  0.7978043696553352  1.0000
  N   N2        1.0  0.06592609673904821  0.031052413095843827  0.2021956297812248  1.0000
  N   N3        1.0  0.6054152661876648  0.680768380610138  0.4776104815467241  1.0000
  N   N4        1.0  0.39458473352548434  0.3192316195497024  0.5223895185899509  1.0000
  O   O1        1.0  0.9431370195244755  0.2802052348538194  0.011915528155776994  1.0000
  O   O2        1.0  0.05686298018867344  0.7197947653060212  0.9880844719808979  1.0000
  O   O3        1.0  0.2919244590176874  0.7260654450087375  0.8694772994807718  1.0000
  O   O4        1.0  0.7080755406954617  0.27393455515110293  0.13052270065590296  1.0000
  O   O5        1.0  0.10290874578858791  0.8026684118998446  0.805911945749808  1.0000
  O   O6        1.0  0.8970912547739274  0.1973315882706632  0.1940880543907001  1.0000
  O   O7        1.0  0.8694721706338535  0.4302277222816826  0.27414138309567854  1.0000
  O   O8        1.0  0.13052782907929533  0.569772277878158  0.7258586170409963  1.0000
  O   O9        1.0  0.5567944150306375  0.8632729294616297  0.4539468678189506  1.0000
  O   O10       1.0  0.44320558468251164  0.13672707069821086  0.5460531323177242  1.0000
  O   O11       1.0  0.6136662324948261  0.9931956971085345  0.3914842972105373  1.0000
  O   O12       1.0  0.3863337672183229  0.00680430305130603  0.6085157029261375  1.0000
  Cl  Cl1       1.0  0.3327739197672051  0.43848306518517915  0.9039467106857314  1.0000
  Cl  Cl2       1.0  0.6672260799459439  0.5615169349746614  0.0960532894509435  1.0000
  Cl  Cl3       1.0  0.6593216891060225  0.4413339255440129  0.7878072962160723  1.0000
  Cl  Cl4       1.0  0.34067831173016344  0.558666073834419  0.21219270393227918  1.0000
  Cl  Cl5       1.0  0.8761095901599907  0.2527505575266153  0.5679296443403371  1.0000
  Cl  Cl6       1.0  0.12389041040252467  0.7472494426438925  0.43207035580017084  1.0000
  Cl  Cl7       1.0  0.9577123962926465  0.35201007731604367  0.4241306383688473  1.0000
  Cl  Cl8       1.0  0.04228760426986893  0.647989922854464  0.5758693617716606  1.0000
