data_image0
_chemical_formula_structural       H100B36C24O8S8
_chemical_formula_sum              "H100 B36 C24 O8 S8"
_cell_length_a       8.198575564597048
_cell_length_b       10.862246588070255
_cell_length_c       17.758426621373236
_cell_angle_alpha    90.0
_cell_angle_beta     100.0421511160467
_cell_angle_gamma    90.0

_space_group_name_H-M_alt    "P 1"
_space_group_IT_number       1

loop_
  _space_group_symop_operation_xyz
  'x, y, z'

loop_
  _atom_site_type_symbol
  _atom_site_label
  _atom_site_symmetry_multiplicity
  _atom_site_fract_x
  _atom_site_fract_y
  _atom_site_fract_z
  _atom_site_occupancy
  H   H1        1.0  0.5831183821171144  0.3541980950999118  0.5049048455687907  1.0000
  H   H2        1.0  0.916881617852048  0.85419809472843  0.9950951542879224  1.0000
  H   H3        1.0  0.4168816186025573  0.6458019050777445  0.49509515414442334  1.0000
  H   H4        1.0  0.083118381648262  0.1458019054492263  0.0049048454262469315  1.0000
  H   H5        1.0  0.7130223686864628  0.4795840913537459  0.4825575483663809  1.0000
  H   H6        1.0  0.7869776312593029  0.9795840909822642  0.017442451365676136  1.0000
  H   H7        1.0  0.28697763203320875  0.5204159088239103  0.517442451346833  1.0000
  H   H8        1.0  0.21302236824100723  0.020415908274772236  0.9825575483484931  1.0000
  H   H9        1.0  0.8038410281268802  0.33402368659028764  0.5186434955773761  1.0000
  H   H10       1.0  0.6961589718422821  0.8340236871394258  0.9813565042793365  1.0000
  H   H11       1.0  0.19615897281082442  0.6659763126667487  0.4813565047077111  1.0000
  H   H12       1.0  0.3038410276580279  0.16597631303823052  0.018643495434832572  1.0000
  H   H13       1.0  0.8408517115459063  0.4873916244743015  0.3624625517417768  1.0000
  H   H14       1.0  0.6591482883998595  0.9873916241028197  0.13753744799028017  1.0000
  H   H15       1.0  0.15914828917376533  0.5126083757033547  0.6375374479714371  1.0000
  H   H16       1.0  0.34085171110045065  0.012608376074836556  0.8624625517238891  1.0000
  H   H17       1.0  0.8530303670439915  0.3558257059128919  0.30101687094755025  1.0000
  H   H18       1.0  0.6469696331198074  0.85582570554141  0.19898312935638013  1.0000
  H   H19       1.0  0.14696963267435167  0.6441742942647644  0.6989831293384924  1.0000
  H   H20       1.0  0.35303036659853576  0.14417429463624612  0.8010168709296625  1.0000
  H   H21       1.0  0.9641788893271975  0.35410291589442994  0.39840402110946904  1.0000
  H   H22       1.0  0.5358211108366013  0.854102916443568  0.10159597919446131  1.0000
  H   H23       1.0  0.03582111039114567  0.6458970842832263  0.6015959791765736  1.0000
  H   H24       1.0  0.4641788888817418  0.14589708373408825  0.8984040210915812  1.0000
  H   H25       1.0  0.1066140193958128  0.988645908830158  0.29759489179451354  1.0000
  H   H26       1.0  0.3933859808550065  0.48864590920163986  0.20240510777615664  1.0000
  H   H27       1.0  0.8933859813238588  0.011354090426878306  0.7024051079187003  1.0000
  H   H28       1.0  0.6066140186453037  0.5113540909760164  0.7975948919380127  1.0000
  H   H29       1.0  0.021047553816978155  0.12216905400190839  0.2441873525981546  1.0000
  H   H30       1.0  0.47895244643384116  0.6221690545510464  0.2558126469725156  1.0000
  H   H31       1.0  0.9789524469026935  0.877830946175748  0.7558126471150592  1.0000
  H   H32       1.0  0.521047553066469  0.37783094562660985  0.7441873527416537  1.0000
  H   H33       1.0  0.08510325019251279  0.13004367637458977  0.34699676737976604  1.0000
  H   H34       1.0  0.4148967502763395  0.630043676003108  0.15300323276277755  1.0000
  H   H35       1.0  0.9148967507451918  0.8699563238030664  0.653003232905321  1.0000
  H   H36       1.0  0.5851032492239706  0.3699563232539284  0.8469967669513917  1.0000
  H   H37       1.0  0.44027141334456416  0.10525948207212667  0.17701766080344664  1.0000
  H   H38       1.0  0.059728587124288204  0.6052594817006448  0.3229823393390969  1.0000
  H   H39       1.0  0.559728586373779  0.8947405181055296  0.822982339482596  1.0000
  H   H40       1.0  0.9402714125940549  0.3947405175563915  0.6770176609469457  1.0000
  H   H41       1.0  0.21675363440758777  0.10779496216611088  0.15175391429548188  1.0000
  H   H42       1.0  0.283246364841903  0.6077949617946291  0.34824608584801714  1.0000
  H   H43       1.0  0.7832463653107553  0.8922050380115453  0.8482460859905607  1.0000
  H   H44       1.0  0.7167536346584071  0.39220503838302717  0.651753913866152  1.0000
  H   H45       1.0  0.3211847172502419  0.9721106683029119  0.19583413871376695  1.0000
  H   H46       1.0  0.17881528300057736  0.47211066867439383  0.3041658608569032  1.0000
  H   H47       1.0  0.6788152834694298  0.027889331874744277  0.8041658609994468  1.0000
  H   H48       1.0  0.8211847164997327  0.5278893315032624  0.695834138857266  1.0000
  H   H49       1.0  0.4304713057163708  0.33341231490523554  0.3126196608222029  1.0000
  H   H50       1.0  0.06952869353312006  0.8334123154543736  0.1873803393212962  1.0000
  H   H51       1.0  0.5695286940019724  0.6665876843518008  0.6873803394638398  1.0000
  H   H52       1.0  0.9304713059671901  0.16658768472328261  0.812619660392873  1.0000
  H   H53       1.0  0.43231606951462465  0.37515054615639554  0.6026109461854972  1.0000
  H   H54       1.0  0.0676839307595913  0.8751505467055337  0.8973890535098288  1.0000
  H   H55       1.0  0.567683931205047  0.6248494531006409  0.39738905352771664  1.0000
  H   H56       1.0  0.9323160687407188  0.12484945347212263  0.10261094620434036  1.0000
  H   H57       1.0  0.5158121162712758  0.13441713720654824  0.6919272537284857  1.0000
  H   H58       1.0  0.9841878836978866  0.6344171368350665  0.8080727461282271  1.0000
  H   H59       1.0  0.48418788444839583  0.8655828629711079  0.30807274598472806  1.0000
  H   H60       1.0  0.015812116020456516  0.3655828624219699  0.19192725415781556  1.0000
  H   H61       1.0  0.5524351249419182  0.13676829171155172  0.5267348155825778  1.0000
  H   H62       1.0  0.9475648750272443  0.6367682922606899  0.9732651842741348  1.0000
  H   H63       1.0  0.4475648745583919  0.8632317075454847  0.47326518413159124  1.0000
  H   H64       1.0  0.05243512469109884  0.36323170791696646  0.026734816011907685  1.0000
  H   H65       1.0  0.283410832951729  0.2907649144578205  0.4378230469210857  1.0000
  H   H66       1.0  0.21658916629776184  0.7907649140863386  0.062176953222413345  1.0000
  H   H67       1.0  0.7165891667666141  0.7092350857198357  0.562176953364957  1.0000
  H   H68       1.0  0.7834108332025482  0.20923508609131758  0.9378230464917559  1.0000
  H   H69       1.0  0.05650629404262768  0.3836869505961399  0.5505729386565767  1.0000
  H   H70       1.0  0.4434937052302598  0.883686950224658  0.9494270616115781  1.0000
  H   H71       1.0  0.9434937056757154  0.6163130495815164  0.449427061629466  1.0000
  H   H72       1.0  0.5565062944880833  0.11631304903237837  0.05057293867446442  1.0000
  H   H73       1.0  0.20810754744470772  0.28894783179080785  0.7097050594399519  1.0000
  H   H74       1.0  0.29189245304754124  0.788947831419326  0.7902949408272475  1.0000
  H   H75       1.0  0.7918924520556024  0.7110521683868485  0.2902949402742174  1.0000
  H   H76       1.0  0.7081075478901634  0.21105216783771033  0.20970505945783963  1.0000
  H   H77       1.0  0.39317690102516417  0.9493310722042784  0.5841139274575248  1.0000
  H   H78       1.0  0.10682309924905191  0.44933107257576027  0.9158860722378015  1.0000
  H   H79       1.0  0.606823098475146  0.050668927973377756  0.41588607225664453  1.0000
  H   H80       1.0  0.8931769014706197  0.5506689276018959  0.08411392747541242  1.0000
  H   H81       1.0  0.26043379003468303  0.024585298062860805  0.455181803378422  1.0000
  H   H82       1.0  0.2395662104341693  0.5245852986119989  0.04481819676412162  1.0000
  H   H83       1.0  0.739566209465627  0.9754147021147954  0.5448181963357472  1.0000
  H   H84       1.0  0.7604337905035352  0.4754147015656574  0.9551818035209655  1.0000
  H   H85       1.0  0.9658904192510381  0.15952912833917268  0.4453618572459145  1.0000
  H   H86       1.0  0.5341095806947276  0.6595291288883107  0.05463814248614249  1.0000
  H   H87       1.0  0.034109581468633465  0.8404708718384836  0.5546381424672993  1.0000
  H   H88       1.0  0.46589041880558246  0.3404708712893455  0.9453618572280268  1.0000
  H   H89       1.0  0.9077458642210393  0.17601649663337895  0.6184253417965544  1.0000
  H   H90       1.0  0.592254135748123  0.6760164962618972  0.8815746580601584  1.0000
  H   H91       1.0  0.09225413549730373  0.8239835035442773  0.3815746584894882  1.0000
  H   H92       1.0  0.4077458649715486  0.3239835039157591  0.11842534165305542  1.0000
  H   H93       1.0  0.21007360153993168  0.0035940843069127626  0.7015537458292758  1.0000
  H   H94       1.0  0.28992639773295587  0.5035940839354309  0.7984462544388792  1.0000
  H   H95       1.0  0.7899263981784115  0.9964059158707435  0.2984462544567668  1.0000
  H   H96       1.0  0.7100736019853873  0.4964059162422253  0.2015537458471635  1.0000
  H   H97       1.0  0.06623694808160183  0.04682854839243409  0.5937250760336332  1.0000
  H   H98       1.0  0.4337630524106472  0.5468285480209523  0.9062749242335663  1.0000
  H   H99       1.0  0.9337630516367414  0.9531714517852221  0.40627492425240946  1.0000
  H   H100      1.0  0.5662369485270575  0.45317145215670396  0.09372507605152093  1.0000
  B   B1        1.0  0.35023220423248397  0.284296322585015  0.5892892155666363  1.0000
  B   B2        1.0  0.14976779504040352  0.7842963222135332  0.9107107847015187  1.0000
  B   B3        1.0  0.6497677954858592  0.7157036775926412  0.4107107847194063  1.0000
  B   B4        1.0  0.8502322044599065  0.21570367704350313  0.08928921501265064  1.0000
  B   B5        1.0  0.39837081331346985  0.15009330498817575  0.642804771675939  1.0000
  B   B6        1.0  0.10162918717877908  0.6500933055373138  0.8571952285912605  1.0000
  B   B7        1.0  0.6016291874062017  0.8499066951894805  0.3571952280372748  1.0000
  B   B8        1.0  0.8983708125395641  0.3499066946403424  0.14280477169478212  1.0000
  B   B9        1.0  0.42270176260304687  0.15231935369770847  0.5467397707972617  1.0000
  B   B10       1.0  0.07729823788920212  0.6523193533262267  0.9532602294699378  1.0000
  B   B11       1.0  0.5772982371152963  0.8476806464799477  0.45326022948878103  1.0000
  B   B12       1.0  0.9227017630485025  0.3476806468514296  0.04673977081514937  1.0000
  B   B13       1.0  0.25969443417943733  0.24001827512030127  0.4949366053218563  1.0000
  B   B14       1.0  0.240305566289415  0.7400182747488195  0.005063394820687342  1.0000
  B   B15       1.0  0.7403055655389058  0.759981725057355  0.5050633949641864  1.0000
  B   B16       1.0  0.7596944346482896  0.2599817245082169  0.9949366054643999  1.0000
  B   B17       1.0  0.13195313302604852  0.28855154636632413  0.558266818865686  1.0000
  B   B18       1.0  0.36804686746620047  0.7885515469154623  0.9417331814015135  1.0000
  B   B19       1.0  0.8680468679116561  0.7114484528907122  0.4417331814194012  1.0000
  B   B20       1.0  0.6319531322521427  0.21144845326219405  0.058266818884529135  1.0000
  B   B21       1.0  0.21634915768041174  0.23144812351812352  0.6526045933623724  1.0000
  B   B22       1.0  0.2836508425938042  0.7314481231466418  0.8473954063329536  1.0000
  B   B23       1.0  0.7836508418198983  0.7685518766595327  0.34739540635179683  1.0000
  B   B24       1.0  0.7163491581258674  0.2685518770310145  0.1526045933802601  1.0000
  B   B25       1.0  0.07383731401694539  0.15990963157729093  0.5006486413863707  1.0000
  B   B26       1.0  0.4261626862572705  0.6599096321264291  0.9993513583089552  1.0000
  B   B27       1.0  0.9261626867027262  0.8400903676797454  0.499351358326843  1.0000
  B   B28       1.0  0.5738373132430397  0.3400903680512272  0.0006486414052139338  1.0000
  B   B29       1.0  0.038061709460020444  0.16237427641691396  0.59756411121248  1.0000
  B   B30       1.0  0.46193828981286705  0.662374276966052  0.9024358890556748  1.0000
  B   B31       1.0  0.9619382902583227  0.8376257228401224  0.4024358890735626  1.0000
  B   B32       1.0  0.5380617099054761  0.3376257232116042  0.09756411123036776  1.0000
  B   B33       1.0  0.21053518650391792  0.06723236064278498  0.6466463820530955  1.0000
  B   B34       1.0  0.28946481398833107  0.5672323602713032  0.8533536182141039  1.0000
  B   B35       1.0  0.7894648132144253  0.9327676395348713  0.3533536182329472  1.0000
  B   B36       1.0  0.710535185730012  0.4327676399063531  0.1466463820719386  1.0000
  C   C1        1.0  0.6967691548964888  0.37950935164070476  0.48413480714821  1.0000
  C   C2        1.0  0.803230845049277  0.8795093521898428  0.01586519258384698  1.0000
  C   C3        1.0  0.30323084460382127  0.6204906485369515  0.5158651925659592  1.0000
  C   C4        1.0  0.1967691558884277  0.12049064798781338  0.9841348077012403  1.0000
  C   C5        1.0  0.8535940223517406  0.38710078858069874  0.35971467699567183  1.0000
  C   C6        1.0  0.6464059778120582  0.8871007891298368  0.14028532330825857  1.0000
  C   C7        1.0  0.14640597736660246  0.6128992115969575  0.6402853232903708  1.0000
  C   C8        1.0  0.35359402312564653  0.11289921104781943  0.8597146769768287  1.0000
  C   C9        1.0  0.10962030047804534  0.0893874827944313  0.29357234085297435  1.0000
  C   C10       1.0  0.39037969999080696  0.5893874824229495  0.20642765928956924  1.0000
  C   C11       1.0  0.8903797004596593  0.9106125173832249  0.7064276594321128  1.0000
  C   C12       1.0  0.6096202995095031  0.41061251683408684  0.7935723404246  1.0000
  C   C13       1.0  0.3233455186642605  0.07298383290899312  0.19207698945181217  1.0000
  C   C14       1.0  0.17665448180459184  0.5729838334581312  0.3079230106907314  1.0000
  C   C15       1.0  0.6766544810540825  0.9270161663480433  0.8079230108342303  1.0000
  C   C16       1.0  0.8233455189150797  0.42701616671952514  0.6920769890224824  1.0000
  C   C17       1.0  0.32393349402260146  0.0348809407821878  0.5825534171076204  1.0000
  C   C18       1.0  0.17606650625161446  0.534880940410706  0.9174465825877056  1.0000
  C   C19       1.0  0.6760665066970701  0.9651190593954685  0.41744658260559336  1.0000
  C   C20       1.0  0.8239334932486957  0.4651190597669502  0.08255341712646361  1.0000
  C   C21       1.0  0.24181898760757847  0.0828770220507332  0.5029144191617185  1.0000
  C   C22       1.0  0.2581810126666375  0.5828770225998712  0.9970855805336075  1.0000
  C   C23       1.0  0.7581810118927317  0.9171229772063031  0.4970855805524507  1.0000
  C   C24       1.0  0.7418189868336725  0.417122977577785  0.002914419180561649  1.0000
  O   O1        1.0  0.5301475802254662  0.3950624638473034  0.3440738730936569  1.0000
  O   O2        1.0  0.9698524199383326  0.8950624634758216  0.1559261272102735  1.0000
  O   O3        1.0  0.4698524207122386  0.6049375363303527  0.6559261271914304  1.0000
  O   O4        1.0  0.030147579780010494  0.1049375367018346  0.8440738730757692  1.0000
  O   O5        1.0  0.304626105308711  0.2751090306937039  0.27295704300349655  1.0000
  O   O6        1.0  0.19537389394077984  0.775109031242842  0.22704295714000247  1.0000
  O   O7        1.0  0.6953738941915991  0.7248909685633325  0.7270429567106726  1.0000
  O   O8        1.0  0.8046261057775633  0.22489096893481428  0.7729570431460402  1.0000
  S   S1        1.0  0.6780256780788918  0.31904552542621634  0.3898018900679201  1.0000
  S   S2        1.0  0.821974322084907  0.8190455250547345  0.11019811023601028  1.0000
  S   S3        1.0  0.3219743216394512  0.6809544747514399  0.6101981102181225  1.0000
  S   S4        1.0  0.17802567763343619  0.1809544751229217  0.8898018900500323  1.0000
  S   S5        1.0  0.3148437820371426  0.13387115991244838  0.28488823846397265  1.0000
  S   S6        1.0  0.1851562184317097  0.6338711595409665  0.21511176167857093  1.0000
  S   S7        1.0  0.6851562189005621  0.8661288402652079  0.7151117618211146  1.0000
  S   S8        1.0  0.8148437810686003  0.3661288397160698  0.7848882380355984  1.0000
