data_image0
_chemical_formula_structural       H28C32N4O18S2
_chemical_formula_sum              "H28 C32 N4 O18 S2"
_cell_length_a       5.057002145730144
_cell_length_b       32.98955791106383
_cell_length_c       5.2360611672185176
_cell_angle_alpha    90.0
_cell_angle_beta     92.11388244869768
_cell_angle_gamma    90.0

_space_group_name_H-M_alt    "P 1"
_space_group_IT_number       1

loop_
  _space_group_symop_operation_xyz
  'x, y, z'

loop_
  _atom_site_type_symbol
  _atom_site_label
  _atom_site_symmetry_multiplicity
  _atom_site_fract_x
  _atom_site_fract_y
  _atom_site_fract_z
  _atom_site_occupancy
  H   H1        1.0  0.7992759233773831  0.7102474562759129  0.6910913846334906  1.0000
  H   H2        1.0  0.20072407561750796  0.21024745614047344  0.30890861591741736  1.0000
  H   H3        1.0  0.20072407561750796  0.2897525436918398  0.30890861591741736  1.0000
  H   H4        1.0  0.7992759233773831  0.7897525438272792  0.6910913846334906  1.0000
  H   H5        1.0  0.4591887748668733  0.7118611599255198  0.7778940063041567  1.0000
  H   H6        1.0  0.5408112241280177  0.2118611600932065  0.22210599424675126  1.0000
  H   H7        1.0  0.5408112241280177  0.28813884004223295  0.22210599424675126  1.0000
  H   H8        1.0  0.4591887748668733  0.7881388398745461  0.7778940063041567  1.0000
  H   H9        1.0  0.5559547276450355  0.6807745951172031  0.5111769997669687  1.0000
  H   H10       1.0  0.4440452713498555  0.18077459498176365  0.4888230007839392  1.0000
  H   H11       1.0  0.4440452713498555  0.31922540485054957  0.4888230007839392  1.0000
  H   H12       1.0  0.5559547276450355  0.8192254049859891  0.5111769997669687  1.0000
  H   H13       1.0  0.11002826378909342  0.7124275715776666  0.1958873780139998  1.0000
  H   H14       1.0  0.8899717352057975  0.21242757174535334  0.8041126225369081  1.0000
  H   H15       1.0  0.8899717352057975  0.28757242839008607  0.8041126225369081  1.0000
  H   H16       1.0  0.11002826378909342  0.7875724282223993  0.1958873780139998  1.0000
  H   H17       1.0  0.7482174057592319  0.5243689959906517  0.6152826099734507  1.0000
  H   H18       1.0  0.25178259521445956  0.024368996158338506  0.38471739064501664  1.0000
  H   H19       1.0  0.25178259521445956  0.4756310039771009  0.38471739064501664  1.0000
  H   H20       1.0  0.7482174057592319  0.975631003809414  0.6152826099734507  1.0000
  H   H21       1.0  0.8030179139508384  0.6179107332979308  0.09333900369172934  1.0000
  H   H22       1.0  0.1969820850440527  0.1179107334656175  0.9066609968591788  1.0000
  H   H23       1.0  0.1969820850440527  0.38208926666982196  0.9066609968591788  1.0000
  H   H24       1.0  0.8030179139508384  0.8820892668052613  0.09333900369172934  1.0000
  H   H25       1.0  0.908217618363408  0.629472055247992  0.7824291973545353  1.0000
  H   H26       1.0  0.0917823826102837  0.12947205511255258  0.21757080326393202  1.0000
  H   H27       1.0  0.0917823826102837  0.37052794471976064  0.21757080326393202  1.0000
  H   H28       1.0  0.908217618363408  0.8705279448552001  0.7824291973545353  1.0000
  C   C1        1.0  0.5933590626135619  0.7087942910007298  0.6190915318945894  1.0000
  C   C2        1.0  0.4066409383601296  0.20879429116841655  0.3809084687238779  1.0000
  C   C3        1.0  0.4066409383601296  0.2912057089670229  0.3809084687238779  1.0000
  C   C4        1.0  0.5933590626135619  0.7912057091024624  0.6190915318945894  1.0000
  C   C5        1.0  0.10290484839903853  0.5541398805429003  0.1598691290253592  1.0000
  C   C6        1.0  0.8970951505958525  0.054139880407460865  0.8401308715255487  1.0000
  C   C7        1.0  0.8970951505958525  0.4458601194248524  0.8401308715255487  1.0000
  C   C8        1.0  0.10290484839903853  0.9458601195602918  0.1598691290253592  1.0000
  C   C9        1.0  0.32990002665652673  0.5767361512176886  0.8076931694314273  1.0000
  C   C10       1.0  0.6700999723383644  0.07673615138537533  0.19230683111948055  1.0000
  C   C11       1.0  0.6700999723383644  0.4232638487500641  0.19230683111948055  1.0000
  C   C12       1.0  0.32990002665652673  0.9232638485823773  0.8076931694314273  1.0000
  C   C13       1.0  0.4397200543023276  0.5363864522739031  0.8859063218506563  1.0000
  C   C14       1.0  0.5602799466683237  0.03638645213846369  0.1140936768578723  1.0000
  C   C15       1.0  0.5602799466683237  0.46361354769384955  0.1140936768578723  1.0000
  C   C16       1.0  0.4397200543023276  0.9636135478292889  0.8859063218506563  1.0000
  C   C17       1.0  0.30393288046281386  0.5229232106264289  0.0989959173283188  1.0000
  C   C18       1.0  0.6960671185290369  0.02292321049098938  0.9010040813126506  1.0000
  C   C19       1.0  0.6960671185290369  0.47707678934132386  0.9010040813126506  1.0000
  C   C20       1.0  0.30393288046281386  0.9770767894767632  0.0989959173283188  1.0000
  C   C21       1.0  0.6407996049107015  0.5138566596042434  0.7795800465838844  1.0000
  C   C22       1.0  0.35920039605994963  0.013856659771930208  0.22041995212464438  1.0000
  C   C23       1.0  0.35920039605994963  0.48614334036350926  0.22041995212464438  1.0000
  C   C24       1.0  0.6407996049107015  0.9861433404989486  0.7795800465838844  1.0000
  C   C25       1.0  0.9782292598143755  0.6218459030370942  0.9779594295526335  1.0000
  C   C26       1.0  0.021770739180515537  0.12184590320478099  0.022040570998274556  1.0000
  C   C27       1.0  0.021770739180515537  0.37815409693065843  0.022040570998274556  1.0000
  C   C28       1.0  0.9782292598143755  0.8781540970660979  0.9779594295526335  1.0000
  C   C29       1.0  0.1445002861795191  0.6566763904021474  0.08650500745304915  1.0000
  C   C30       1.0  0.8554997147911321  0.156676390266708  0.9134949912554796  1.0000
  C   C31       1.0  0.8554997147911321  0.34332360956560526  0.9134949912554796  1.0000
  C   C32       1.0  0.1445002861795191  0.8433236097010447  0.08650500745304915  1.0000
  N   N1        1.0  0.1261111165648798  0.5846001611174088  0.976276209857691  1.0000
  N   N2        1.0  0.8738888824300112  0.08460016128509557  0.023723790693216864  1.0000
  N   N3        1.0  0.8738888824300112  0.41539983885034387  0.023723790693216864  1.0000
  N   N4        1.0  0.1261111165648798  0.9153998389857834  0.976276209857691  1.0000
  O   O1        1.0  0.23573926415257662  0.749999999900033  0.3464356804441009  1.0000
  O   O2        1.0  0.7642607368180746  0.2500000000677197  0.653564318264428  1.0000
  O   O3        1.0  0.9434044677877901  0.5545009969310651  0.33031144168028215  1.0000
  O   O4        1.0  0.05659553318590145  0.05450099709875198  0.6696885589381851  1.0000
  O   O5        1.0  0.05659553318590145  0.44549900303668744  0.6696885589381851  1.0000
  O   O6        1.0  0.9434044677877901  0.945499003172127  0.33031144168028215  1.0000
  O   O7        1.0  0.39524471705378095  0.5993848460566521  0.6365319722960736  1.0000
  O   O8        1.0  0.6047552839168703  0.09938484622433887  0.36346802641245507  1.0000
  O   O9        1.0  0.6047552839168703  0.4006151539111006  0.36346802641245507  1.0000
  O   O10       1.0  0.39524471705378095  0.9006151537434138  0.6365319722960736  1.0000
  O   O11       1.0  0.38129997422972084  0.6543884276412192  0.14184471490153258  1.0000
  O   O12       1.0  0.6187000267409304  0.15438842750577972  0.8581552838069961  1.0000
  O   O13       1.0  0.6187000267409304  0.34561157232653344  0.8581552838069961  1.0000
  O   O14       1.0  0.38129997422972084  0.8456115724619729  0.14184471490153258  1.0000
  O   O15       1.0  0.9981556468221786  0.6901047768319684  0.11096462926290616  1.0000
  O   O16       1.0  0.0018443521696722646  0.190104776696529  0.8890353693780632  1.0000
  O   O17       1.0  0.0018443521696722646  0.30989522343891046  0.8890353693780632  1.0000
  O   O18       1.0  0.9981556468221786  0.8098952232712237  0.11096462926290616  1.0000
  S   S1        1.0  0.5404929765653134  0.749999999900033  0.4014127357031397  1.0000
  S   S2        1.0  0.4595070244083781  0.2500000000677197  0.5985872649153278  1.0000
