data_image0
_chemical_formula_structural       H76C96N20O32
_chemical_formula_sum              "H76 C96 N20 O32"
_cell_length_a       5.011945428904392
_cell_length_b       16.902955206917134
_cell_length_c       26.234845717008074
_cell_angle_alpha    90.0
_cell_angle_beta     90.0
_cell_angle_gamma    90.0

_space_group_name_H-M_alt    "P 1"
_space_group_IT_number       1

loop_
  _space_group_symop_operation_xyz
  'x, y, z'

loop_
  _atom_site_type_symbol
  _atom_site_label
  _atom_site_symmetry_multiplicity
  _atom_site_fract_x
  _atom_site_fract_y
  _atom_site_fract_z
  _atom_site_occupancy
  H   H1        1.0  0.029093684691589964  0.07475559655289778  0.4906123420293502  1.0000
  H   H2        1.0  0.4709063164153264  0.4252444032424891  0.990612342086372  1.0000
  H   H3        1.0  0.9709063155270093  0.07475559655289778  0.009387658027671723  1.0000
  H   H4        1.0  0.529093683803273  0.4252444032424891  0.5093876580846937  1.0000
  H   H5        1.0  0.9709063155270093  0.9252444036294885  0.5093876580846937  1.0000
  H   H6        1.0  0.529093683803273  0.5747555963482847  0.009387658027671723  1.0000
  H   H7        1.0  0.029093684691589964  0.9252444036294885  0.990612342086372  1.0000
  H   H8        1.0  0.4709063164153264  0.5747555963482847  0.4906123420293502  1.0000
  H   H9        1.0  0.01690586244442055  0.22156045579931707  0.48183574839187643  1.0000
  H   H10       1.0  0.4830941366672626  0.2784395439960698  0.9818357484488983  1.0000
  H   H11       1.0  0.9830941377741789  0.22156045579931707  0.018164251283973094  1.0000
  H   H12       1.0  0.5169058635513368  0.2784395439960698  0.518164251340995  1.0000
  H   H13       1.0  0.9830941377741789  0.7784395443830692  0.518164251340995  1.0000
  H   H14       1.0  0.5169058635513368  0.7215604555947039  0.018164251283973094  1.0000
  H   H15       1.0  0.01690586244442055  0.7784395443830692  0.9818357484488983  1.0000
  H   H16       1.0  0.4830941366672626  0.7215604555947039  0.48183574839187643  1.0000
  H   H17       1.0  0.3291695197807932  0.2916078975339714  0.42589311866074275  1.0000
  H   H18       1.0  0.17083047933088993  0.20839210285302798  0.9258931183365923  1.0000
  H   H19       1.0  0.670830478442573  0.2916078975339714  0.07410688139627916  1.0000
  H   H20       1.0  0.8291695208877095  0.20839210285302798  0.574106881453301  1.0000
  H   H21       1.0  0.670830478442573  0.7083921026484148  0.574106881453301  1.0000
  H   H22       1.0  0.8291695208877095  0.7916078973293583  0.07410688139627916  1.0000
  H   H23       1.0  0.3291695197807932  0.7083921026484148  0.9258931183365923  1.0000
  H   H24       1.0  0.17083047933088993  0.7916078973293583  0.42589311866074275  1.0000
  H   H25       1.0  0.6768090610957664  0.21615951206596085  0.37553573808947005  1.0000
  H   H26       1.0  0.823190938234516  0.28384048832103853  0.875535738146492  1.0000
  H   H27       1.0  0.3231909391228329  0.21615951206596085  0.12446426158637947  1.0000
  H   H28       1.0  0.1768090619840834  0.28384048832103853  0.6244642616434013  1.0000
  H   H29       1.0  0.3231909391228329  0.7838404881164254  0.6244642616434013  1.0000
  H   H30       1.0  0.1768090619840834  0.7161595118613476  0.12446426158637947  1.0000
  H   H31       1.0  0.6768090610957664  0.7838404881164254  0.875535738146492  1.0000
  H   H32       1.0  0.823190938234516  0.7161595118613476  0.37553573808947005  1.0000
  H   H33       1.0  0.9133824390024752  0.9048035028656618  0.3616562808238252  1.0000
  H   H34       1.0  0.5866175603278073  0.5951964971121113  0.8616562808808471  1.0000
  H   H35       1.0  0.08661755922089097  0.9048035028656618  0.13834371923319677  1.0000
  H   H36       1.0  0.4133824398907921  0.5951964971121113  0.6383437192902187  1.0000
  H   H37       1.0  0.08661755922089097  0.09519649672511189  0.6383437192902187  1.0000
  H   H38       1.0  0.4133824398907921  0.40480350307027496  0.13834371923319677  1.0000
  H   H39       1.0  0.9133824390024752  0.09519649672511189  0.8616562808808471  1.0000
  H   H40       1.0  0.5866175603278073  0.40480350307027496  0.3616562808238252  1.0000
  H   H41       1.0  0.7388860398684608  0.8537564759146054  0.4110519076927065  1.0000
  H   H42       1.0  0.7611139594618217  0.6462435240631678  0.9110519077497284  1.0000
  H   H43       1.0  0.2611139603501387  0.8537564759146054  0.08894809236431546  1.0000
  H   H44       1.0  0.23888604075677763  0.6462435240631678  0.5889480924213374  1.0000
  H   H45       1.0  0.2611139603501387  0.14624352426778095  0.5889480924213374  1.0000
  H   H46       1.0  0.23888604075677763  0.3537564755276059  0.08894809236431546  1.0000
  H   H47       1.0  0.7388860398684608  0.14624352426778095  0.9110519077497284  1.0000
  H   H48       1.0  0.7611139594618217  0.3537564755276059  0.4110519076927065  1.0000
  H   H49       1.0  0.3761245601614791  0.7632444570828973  0.3055433211411377  1.0000
  H   H50       1.0  0.123875438950204  0.7367555428948758  0.8055433211981596  1.0000
  H   H51       1.0  0.6238754400571203  0.7632444570828973  0.1944566785347118  1.0000
  H   H52       1.0  0.8761245612683953  0.7367555428948758  0.6944566785917337  1.0000
  H   H53       1.0  0.6238754400571203  0.2367555430994889  0.6944566785917337  1.0000
  H   H54       1.0  0.8761245612683953  0.26324445728751045  0.1944566785347118  1.0000
  H   H55       1.0  0.3761245601614791  0.2367555430994889  0.8055433211981596  1.0000
  H   H56       1.0  0.123875438950204  0.26324445728751045  0.3055433211411377  1.0000
  H   H57       1.0  0.33597861426996845  0.6172938324849903  0.3016646876969916  1.0000
  H   H58       1.0  0.1640213868369479  0.8827061674927827  0.8016646877540136  1.0000
  H   H59       1.0  0.6640213859486309  0.6172938324849903  0.1983353123600303  1.0000
  H   H60       1.0  0.8359786133816515  0.8827061674927827  0.6983353124170523  1.0000
  H   H61       1.0  0.6640213859486309  0.3827061676973959  0.6983353124170523  1.0000
  H   H62       1.0  0.8359786133816515  0.11729383209799094  0.1983353123600303  1.0000
  H   H63       1.0  0.33597861426996845  0.3827061676973959  0.8016646877540136  1.0000
  H   H64       1.0  0.1640213868369479  0.11729383209799094  0.3016646876969916  1.0000
  H   H65       1.0  0.0  0.5382109991202676  0.25000000002851097  1.0000
  H   H66       1.0  0.4999999991116831  0.9617890008575054  0.7500000000855329  1.0000
  H   H67       1.0  0.0  0.4617890010621186  0.7500000000855329  1.0000
  H   H68       1.0  0.4999999991116831  0.03821099873326821  0.25000000002851097  1.0000
  H   H69       1.0  0.13427008125806897  0.8732246166019412  0.2731439638447863  1.0000
  H   H70       1.0  0.36572991785361414  0.6267753833758319  0.7731439639018082  1.0000
  H   H71       1.0  0.8657299189605304  0.8732246166019412  0.22685603621223566  1.0000
  H   H72       1.0  0.6342700823649853  0.6267753833758319  0.7268560362692577  1.0000
  H   H73       1.0  0.8657299189605304  0.12677538298883248  0.7268560362692577  1.0000
  H   H74       1.0  0.6342700823649853  0.3732246168065544  0.22685603621223566  1.0000
  H   H75       1.0  0.13427008125806897  0.12677538298883248  0.7731439639018082  1.0000
  H   H76       1.0  0.36572991785361414  0.3732246168065544  0.2731439638447863  1.0000
  C   C1        1.0  0.3587909037535339  0.06453434542343266  0.4370613051696518  1.0000
  C   C2        1.0  0.14120909735338238  0.43546565437195417  0.9370613052266737  1.0000
  C   C3        1.0  0.6412090964650654  0.06453434542343266  0.06293869450619768  1.0000
  C   C4        1.0  0.858790902865217  0.43546565437195417  0.5629386945632197  1.0000
  C   C5        1.0  0.6412090964650654  0.935465654167341  0.5629386945632197  1.0000
  C   C6        1.0  0.858790902865217  0.564534345810432  0.06293869450619768  1.0000
  C   C7        1.0  0.3587909037535339  0.935465654167341  0.9370613052266737  1.0000
  C   C8        1.0  0.14120909735338238  0.564534345810432  0.4370613051696518  1.0000
  C   C9        1.0  0.16967089767094548  0.1049211737409235  0.4655363070072154  1.0000
  C   C10       1.0  0.33032910343597083  0.3950788260544634  0.9655363070642373  1.0000
  C   C11       1.0  0.8303291025476539  0.1049211737409235  0.034463693049806614  1.0000
  C   C12       1.0  0.6696708967826286  0.3950788260544634  0.5344636931068285  1.0000
  C   C13       1.0  0.8303291025476539  0.8950788264414627  0.5344636931068285  1.0000
  C   C14       1.0  0.6696708967826286  0.6049211735363104  0.034463693049806614  1.0000
  C   C15       1.0  0.16967089767094548  0.8950788264414627  0.9655363070642373  1.0000
  C   C16       1.0  0.33032910343597083  0.6049211735363104  0.4655363070072154  1.0000
  C   C17       1.0  0.16393380807013438  0.1874782942513619  0.46053473461699035  1.0000
  C   C18       1.0  0.33606619104154867  0.312521705544025  0.9605347346740122  1.0000
  C   C19       1.0  0.8360661921484649  0.1874782942513619  0.03946526544003161  1.0000
  C   C20       1.0  0.6639338091770507  0.312521705544025  0.5394652654970535  1.0000
  C   C21       1.0  0.8360661921484649  0.8125217053394118  0.5394652654970535  1.0000
  C   C22       1.0  0.6639338091770507  0.6874782946383613  0.03946526544003161  1.0000
  C   C23       1.0  0.16393380807013438  0.8125217053394118  0.9605347346740122  1.0000
  C   C24       1.0  0.33606619104154867  0.6874782946383613  0.46053473461699035  1.0000
  C   C25       1.0  0.34254238286375205  0.2273572220334193  0.42855640666913014  1.0000
  C   C26       1.0  0.1574576182431643  0.2726427777619675  0.928556406726152  1.0000
  C   C27       1.0  0.6574576173548473  0.2273572220334193  0.07144359338789182  1.0000
  C   C28       1.0  0.8425423819754351  0.2726427777619675  0.5714435934449138  1.0000
  C   C29       1.0  0.6574576173548473  0.7726427781489669  0.5714435934449138  1.0000
  C   C30       1.0  0.8425423819754351  0.7273572218288061  0.07144359338789182  1.0000
  C   C31       1.0  0.34254238286375205  0.7726427781489669  0.928556406726152  1.0000
  C   C32       1.0  0.1574576182431643  0.7273572218288061  0.42855640666913014  1.0000
  C   C33       1.0  0.5352475157708214  0.18605412435294383  0.40039259400675997  1.0000
  C   C34       1.0  0.9647524855546943  0.313945875442443  0.9003925940637819  1.0000
  C   C35       1.0  0.46475248444777795  0.18605412435294383  0.09960740566908956  1.0000
  C   C36       1.0  0.03524751466390516  0.313945875442443  0.5996074057261115  1.0000
  C   C37       1.0  0.46475248444777795  0.8139458758294424  0.5996074057261115  1.0000
  C   C38       1.0  0.03524751466390516  0.6860541241483307  0.09960740566908956  1.0000
  C   C39       1.0  0.5352475157708214  0.8139458758294424  0.9003925940637819  1.0000
  C   C40       1.0  0.9647524855546943  0.6860541241483307  0.40039259400675997  1.0000
  C   C41       1.0  0.5384057664390576  0.10439926145446189  0.4052010160329744  1.0000
  C   C42       1.0  0.961594232891225  0.39560073834092496  0.9052010157088239  1.0000
  C   C43       1.0  0.4615942337795418  0.10439926145446189  0.0947989840240475  1.0000
  C   C44       1.0  0.03840576732737445  0.39560073834092496  0.5947989840810695  1.0000
  C   C45       1.0  0.4615942337795418  0.8956007381363118  0.5947989840810695  1.0000
  C   C46       1.0  0.03840576732737445  0.6043992618414612  0.0947989840240475  1.0000
  C   C47       1.0  0.5384057664390576  0.8956007381363118  0.9052010157088239  1.0000
  C   C48       1.0  0.961594232891225  0.6043992618414612  0.4052010160329744  1.0000
  C   C49       1.0  0.7097888256093104  0.04470231392974337  0.37972465923600285  1.0000
  C   C50       1.0  0.7902111757162052  0.45529768586564345  0.8797246592930248  1.0000
  C   C51       1.0  0.2902111746092889  0.04470231392974337  0.12027534082101911  1.0000
  C   C52       1.0  0.20978882450239414  0.45529768586564345  0.620275340878041  1.0000
  C   C53       1.0  0.2902111746092889  0.9552976862526429  0.620275340878041  1.0000
  C   C54       1.0  0.20978882450239414  0.5447023143167428  0.12027534082101911  1.0000
  C   C55       1.0  0.7097888256093104  0.9552976862526429  0.8797246592930248  1.0000
  C   C56       1.0  0.7902111757162052  0.5447023143167428  0.37972465923600285  1.0000
  C   C57       1.0  0.41012122122194217  0.9785300462271458  0.4320321675325105  1.0000
  C   C58       1.0  0.0898787778897409  0.5214699537506272  0.9320321675895326  1.0000
  C   C59       1.0  0.5898787789966572  0.9785300462271458  0.0679678325245114  1.0000
  C   C60       1.0  0.9101212203336253  0.5214699537506272  0.5679678325815333  1.0000
  C   C61       1.0  0.5898787789966572  0.021469953955240293  0.5679678325815333  1.0000
  C   C62       1.0  0.9101212203336253  0.47853004643175906  0.0679678325245114  1.0000
  C   C63       1.0  0.41012122122194217  0.021469953955240293  0.9320321675895326  1.0000
  C   C64       1.0  0.0898787778897409  0.47853004643175906  0.4320321675325105  1.0000
  C   C65       1.0  0.7173366551969661  0.896246198641084  0.37971541961620037  1.0000
  C   C66       1.0  0.7826633461285496  0.603753801336689  0.8797154196732223  1.0000
  C   C67       1.0  0.2826633450216333  0.896246198641084  0.12028458005964908  1.0000
  C   C68       1.0  0.2173366540900498  0.603753801336689  0.6202845801166711  1.0000
  C   C69       1.0  0.2826633450216333  0.10375380094968963  0.6202845801166711  1.0000
  C   C70       1.0  0.2173366540900498  0.39624619884569723  0.12028458005964908  1.0000
  C   C71       1.0  0.7173366551969661  0.10375380094968963  0.8797154196732223  1.0000
  C   C72       1.0  0.7826633461285496  0.39624619884569723  0.37971541961620037  1.0000
  C   C73       1.0  0.52005692339906  0.8642970593699226  0.3402331424504353  1.0000
  C   C74       1.0  0.9799430759312225  0.6357029406078505  0.8402331425074571  1.0000
  C   C75       1.0  0.4799430768195394  0.8642970593699226  0.15976685722541425  1.0000
  C   C76       1.0  0.020056924287376876  0.6357029406078505  0.6597668572824362  1.0000
  C   C77       1.0  0.4799430768195394  0.13570294081246365  0.6597668572824362  1.0000
  C   C78       1.0  0.020056924287376876  0.3642970595745357  0.15976685722541425  1.0000
  C   C79       1.0  0.52005692339906  0.13570294081246365  0.8402331425074571  1.0000
  C   C80       1.0  0.9799430759312225  0.3642970595745357  0.3402331424504353  1.0000
  C   C81       1.0  0.1839459832669273  0.6458588286107809  0.27814332810310055  1.0000
  C   C82       1.0  0.31605401783998904  0.8541411713669922  0.7781433281601225  1.0000
  C   C83       1.0  0.8160540169516721  0.6458588286107809  0.22185667195392136  1.0000
  C   C84       1.0  0.6839459823786104  0.8541411713669922  0.7218566720109433  1.0000
  C   C85       1.0  0.8160540169516721  0.3541411715716053  0.7218566720109433  1.0000
  C   C86       1.0  0.6839459823786104  0.14585882822378154  0.22185667195392136  1.0000
  C   C87       1.0  0.1839459832669273  0.3541411715716053  0.7781433281601225  1.0000
  C   C88       1.0  0.31605401783998904  0.14585882822378154  0.27814332810310055  1.0000
  C   C89       1.0  0.0  0.6025159527034845  0.25000000002851097  1.0000
  C   C90       1.0  0.4999999991116831  0.8974840472742885  0.7500000000855329  1.0000
  C   C91       1.0  0.0  0.3974840468872892  0.7500000000855329  1.0000
  C   C92       1.0  0.4999999991116831  0.1025159529080976  0.25000000002851097  1.0000
  C   C93       1.0  0.0  0.7651033030429897  0.25000000002851097  1.0000
  C   C94       1.0  0.4999999991116831  0.7348966969347834  0.7500000000855329  1.0000
  C   C95       1.0  0.0  0.23489669713939654  0.7500000000855329  1.0000
  C   C96       1.0  0.4999999991116831  0.2651033032476028  0.25000000002851097  1.0000
  N   N1        1.0  0.6301141253029082  0.9711463202175706  0.3995764561788131  1.0000
  N   N2        1.0  0.8698858740273743  0.5288536797602024  0.8995764558546626  1.0000
  N   N3        1.0  0.36988587491569114  0.9711463202175706  0.10042354387820884  1.0000
  N   N4        1.0  0.13011412619122514  0.5288536797602024  0.6004235439352308  1.0000
  N   N5        1.0  0.36988587491569114  0.028853679964815575  0.6004235439352308  1.0000
  N   N6        1.0  0.13011412619122514  0.4711463204221838  0.10042354387820884  1.0000
  N   N7        1.0  0.6301141253029082  0.028853679964815575  0.8995764558546626  1.0000
  N   N8        1.0  0.8698858740273743  0.4711463204221838  0.3995764561788131  1.0000
  N   N9        1.0  0.0  0.8436310175018681  0.25000000002851097  1.0000
  N   N10       1.0  0.4999999991116831  0.656368982475905  0.7500000000855329  1.0000
  N   N11       1.0  0.0  0.15636898208890565  0.7500000000855329  1.0000
  N   N12       1.0  0.4999999991116831  0.3436310177064812  0.25000000002851097  1.0000
  N   N13       1.0  0.1856603036085752  0.7252263802357775  0.27797020530112215  1.0000
  N   N14       1.0  0.3143396955031079  0.7747736197419957  0.7779702049769717  1.0000
  N   N15       1.0  0.8143396966100241  0.7252263802357775  0.22202979475589982  1.0000
  N   N16       1.0  0.6856603047154916  0.7747736197419957  0.7220297948129217  1.0000
  N   N17       1.0  0.8143396966100241  0.27477361994660876  0.7220297948129217  1.0000
  N   N18       1.0  0.6856603047154916  0.2252263798487781  0.22202979475589982  1.0000
  N   N19       1.0  0.1856603036085752  0.27477361994660876  0.7779702049769717  1.0000
  N   N20       1.0  0.3143396955031079  0.2252263798487781  0.27797020530112215  1.0000
  O   O1        1.0  0.28986329572179254  0.92214088656056  0.4507107122926314  1.0000
  O   O2        1.0  0.21013670538512377  0.5778591134172131  0.9507107123496533  1.0000
  O   O3        1.0  0.7101367044968069  0.92214088656056  0.049289287764390545  1.0000
  O   O4        1.0  0.7898632948334756  0.5778591134172131  0.5492892878214125  1.0000
  O   O5        1.0  0.7101367044968069  0.07785911362182621  0.5492892878214125  1.0000
  O   O6        1.0  0.7898632948334756  0.4221408861735606  0.049289287764390545  1.0000
  O   O7        1.0  0.28986329572179254  0.07785911362182621  0.9507107123496533  1.0000
  O   O8        1.0  0.21013670538512377  0.4221408861735606  0.4507107122926314  1.0000
  O   O9        1.0  0.8849088328899689  0.053222098088022834  0.34766145943396753  1.0000
  O   O10       1.0  0.6150911684355468  0.446777901707364  0.8476614594909895  1.0000
  O   O11       1.0  0.11509116732863048  0.053222098088022834  0.1523385406230544  1.0000
  O   O12       1.0  0.38490883178305263  0.446777901707364  0.6523385406800764  1.0000
  O   O13       1.0  0.11509116732863048  0.9467779020943633  0.6523385406800764  1.0000
  O   O14       1.0  0.38490883178305263  0.5532220978834097  0.1523385406230544  1.0000
  O   O15       1.0  0.8849088328899689  0.9467779020943633  0.8476614594909895  1.0000
  O   O16       1.0  0.6150911684355468  0.5532220978834097  0.34766145943396753  1.0000
  O   O17       1.0  0.35526957251592345  0.909400975263163  0.3200087311570225  1.0000
  O   O18       1.0  0.14473042859099283  0.5905990247146101  0.820008730832872  1.0000
  O   O19       1.0  0.6447304277026759  0.909400975263163  0.17999126889999947  1.0000
  O   O20       1.0  0.8552695716276066  0.5905990247146101  0.6799912689570214  1.0000
  O   O21       1.0  0.6447304277026759  0.09059902491922325  0.6799912689570214  1.0000
  O   O22       1.0  0.8552695716276066  0.4094009748761636  0.17999126889999947  1.0000
  O   O23       1.0  0.35526957251592345  0.09059902491922325  0.820008730832872  1.0000
  O   O24       1.0  0.14473042859099283  0.4094009748761636  0.3200087311570225  1.0000
  O   O25       1.0  0.5441549052532642  0.7886957260908132  0.3314858552555567  1.0000
  O   O26       1.0  0.9558450940770182  0.7113042738869599  0.8314858553125786  1.0000
  O   O27       1.0  0.4558450949653352  0.7886957260908132  0.16851414442029283  1.0000
  O   O28       1.0  0.04415490614158113  0.7113042738869599  0.6685141444773147  1.0000
  O   O29       1.0  0.4558450949653352  0.21130427349996053  0.6685141444773147  1.0000
  O   O30       1.0  0.04415490614158113  0.2886957262954263  0.16851414442029283  1.0000
  O   O31       1.0  0.5441549052532642  0.21130427349996053  0.8314858553125786  1.0000
  O   O32       1.0  0.9558450940770182  0.2886957262954263  0.3314858552555567  1.0000
