data_image0
_chemical_formula_structural       H40C88N16S8
_chemical_formula_sum              "H40 C88 N16 S8"
_cell_length_a       10.695123765480858
_cell_length_b       11.445489274432557
_cell_length_c       14.467188292649963
_cell_angle_alpha    81.65475894996094
_cell_angle_beta     83.06413801521852
_cell_angle_gamma    88.39109217513682

_space_group_name_H-M_alt    "P 1"
_space_group_IT_number       1

loop_
  _space_group_symop_operation_xyz
  'x, y, z'

loop_
  _atom_site_type_symbol
  _atom_site_label
  _atom_site_symmetry_multiplicity
  _atom_site_fract_x
  _atom_site_fract_y
  _atom_site_fract_z
  _atom_site_occupancy
  H   H1        1.0  0.6158536052977429  0.6363656278365815  0.7975625993215609  1.0000
  H   H2        1.0  0.3841463943948961  0.36363437226064227  0.2024374001310742  1.0000
  H   H3        1.0  0.7170944877874814  0.26555813391892147  0.8678892414094289  1.0000
  H   H4        1.0  0.2829055119030259  0.7344418661803275  0.13211075873437958  1.0000
  H   H5        1.0  0.7586333786406756  0.21961965071120884  0.21238643853473083  1.0000
  H   H6        1.0  0.24136662104983173  0.7803803493880401  0.7876135616090778  1.0000
  H   H7        1.0  0.641978212272576  0.7811805350424929  0.32946559675209647  1.0000
  H   H8        1.0  0.3580217874179314  0.2188194650567558  0.6705344033917121  1.0000
  H   H9        1.0  0.7778372646472813  0.07087079331808065  0.953790450628324  1.0000
  H   H10       1.0  0.22216273504322617  0.9291292067811683  0.04620954951548463  1.0000
  H   H11       1.0  0.8003085418555441  0.04861664345932515  0.12361768230553948  1.0000
  H   H12       1.0  0.19969145877689126  0.9513833566364986  0.8763823177561274  1.0000
  H   H13       1.0  0.6910590432365818  0.5673239415125333  0.2862015530542085  1.0000
  H   H14       1.0  0.30894095645392544  0.43267605858671554  0.7137984470896002  1.0000
  H   H15       1.0  0.5586048772239302  0.8626689679350079  0.7602314049702785  1.0000
  H   H16       1.0  0.44139512246657725  0.13733103216424086  0.23976859517353008  1.0000
  H   H17       1.0  0.5996820326854119  0.40083008422710276  0.7599417404898964  1.0000
  H   H18       1.0  0.4003179670050955  0.5991699158721461  0.24005825965391214  1.0000
  H   H19       1.0  0.6180304946269446  0.5877692463548727  0.4769139157820138  1.0000
  H   H20       1.0  0.3819695060054909  0.4122307537409509  0.5230860842796531  1.0000
  H   H21       1.0  0.8213305091854544  0.453582133944172  0.7686314123718713  1.0000
  H   H22       1.0  0.17866949144911295  0.5464178661496266  0.23136858699862217  1.0000
  H   H23       1.0  0.19688463295479602  0.599952847403265  0.7059560467204951  1.0000
  H   H24       1.0  0.803115366737843  0.4000471526939588  0.29404395273213996  1.0000
  H   H25       1.0  0.9067467815188193  0.7861237158619918  0.28797055258528986  1.0000
  H   H26       1.0  0.09325321817381986  0.21387628423523206  0.7120294468673452  1.0000
  H   H27       1.0  0.42456670599035895  0.6893564302721993  0.6615715122354722  1.0000
  H   H28       1.0  0.575433294648537  0.3106435689405255  0.3384284879285974  1.0000
  H   H29       1.0  0.49896961741514045  0.4665958396979888  0.6149891625794279  1.0000
  H   H30       1.0  0.5010303822753669  0.53340416040126  0.38501083756438065  1.0000
  H   H31       1.0  0.08317315563519256  0.9130815918264222  0.1801088049802678  1.0000
  H   H32       1.0  0.9168268449972431  0.08691840826940128  0.8198911950813992  1.0000
  H   H33       1.0  0.8641913854593509  0.87755262805542  0.6292153414872881  1.0000
  H   H34       1.0  0.13580861423115664  0.12244737204382886  0.3707846586565204  1.0000
  H   H35       1.0  0.9225657968918334  0.07799386691634072  0.34614496169067815  1.0000
  H   H36       1.0  0.07743420280726616  0.9220061322977842  0.6538550378643594  1.0000
  H   H37       1.0  0.9706234391911167  0.5832385783466756  0.8341988606373217  1.0000
  H   H38       1.0  0.029376561441318828  0.4167614217491481  0.1658011394243453  1.0000
  H   H39       1.0  0.9733086599541229  0.6261376923353907  0.12855609446784563  1.0000
  H   H40       1.0  0.026691339736384455  0.37386230776385804  0.871443905675963  1.0000
  C   C1        1.0  0.6687678295493031  0.5366478249220689  0.09215999816830031  1.0000
  C   C2        1.0  0.33123217014120415  0.46335217517718  0.9078400019755083  1.0000
  C   C3        1.0  0.6516976759724111  0.637894471636395  0.14116364657121033  1.0000
  C   C4        1.0  0.3483023237180962  0.3621055284628539  0.8588363535725982  1.0000
  C   C5        1.0  0.6081495489404002  0.7626702903050702  0.9957612413632029  1.0000
  C   C6        1.0  0.3918504507565675  0.2373297089110799  0.004238758883008157  1.0000
  C   C7        1.0  0.7170831794571477  0.3402763072072272  0.09048899162143526  1.0000
  C   C8        1.0  0.2829168202333597  0.6597236928920217  0.9095110085223733  1.0000
  C   C9        1.0  0.6189219069101557  0.748558511940502  0.09353552126843018  1.0000
  C   C10       1.0  0.38107809372227985  0.2514414881553217  0.9064644787932368  1.0000
  C   C11       1.0  0.6552502600980558  0.5504902387096674  0.9924541333149309  1.0000
  C   C12       1.0  0.34474973959245164  0.4495097613895815  0.007545866828877587  1.0000
  C   C13       1.0  0.6246992521700685  0.6654018692282624  0.9451196395222331  1.0000
  C   C14       1.0  0.3753007484623672  0.33459813086756124  0.05488036053943396  1.0000
  C   C15       1.0  0.6071647733791943  0.6979787771444181  0.848551288813354  1.0000
  C   C16       1.0  0.39283522631777334  0.30202122207173193  0.15144871143285718  1.0000
  C   C17       1.0  0.7042408002579591  0.35391020766361087  0.9912785662484301  1.0000
  C   C18       1.0  0.2957591994325482  0.646089792435638  0.008721433895378473  1.0000
  C   C19       1.0  0.727196131759162  0.25446652559474625  0.9427340610284449  1.0000
  C   C20       1.0  0.27280386793347705  0.7455334745024775  0.05726593842419002  1.0000
  C   C21       1.0  0.7512596209840186  0.22854840235854018  0.13728693013016643  1.0000
  C   C22       1.0  0.24874037965487733  0.7714515968541847  0.8627130700339032  1.0000
  C   C23       1.0  0.6394819914509916  0.7530775629650084  0.2613853676061424  1.0000
  C   C24       1.0  0.36051800918357574  0.24692243712879033  0.7386146317643509  1.0000
  C   C25       1.0  0.7610696953461968  0.14756471270762134  0.9904654653213196  1.0000
  C   C26       1.0  0.23893030434431053  0.8524352873916275  0.009534534822488928  1.0000
  C   C27       1.0  0.7734965372619039  0.1343695751880234  0.0880625169317558  1.0000
  C   C28       1.0  0.22650346243073521  0.8656304249092004  0.9119374825208793  1.0000
  C   C29       1.0  0.6643500035906947  0.6426452130281343  0.23745312569606125  1.0000
  C   C30       1.0  0.3356499970438725  0.3573547870656643  0.7625468736744322  1.0000
  C   C31       1.0  0.5784079800770822  0.8153808389967434  0.8275565493060157  1.0000
  C   C32       1.0  0.421592019615557  0.18461916110048046  0.17244345014661927  1.0000
  C   C33       1.0  0.029310461949714206  0.6423812531926257  0.5581734769019556  1.0000
  C   C34       1.0  0.970689537740793  0.35761874690662315  0.441826523241853  1.0000
  C   C35       1.0  0.04140963178830548  0.75072866916514  0.39487723730780144  1.0000
  C   C36       1.0  0.9585903679022019  0.24927133093410886  0.6051227628360072  1.0000
  C   C37       1.0  0.9702404541461268  0.6805499521784178  0.4733745068479257  1.0000
  C   C38       1.0  0.02975954554438053  0.3194500479208311  0.5266254932958827  1.0000
  C   C39       1.0  0.22489012988664606  0.7418988557755737  0.4826252447520649  1.0000
  C   C40       1.0  0.7751098698038613  0.25810114432367526  0.5173747553917436  1.0000
  C   C41       1.0  0.15749591398984433  0.6750526096057256  0.5611642050135961  1.0000
  C   C42       1.0  0.8425040857027949  0.3249473904914983  0.43883579443903886  1.0000
  C   C43       1.0  0.16660996561730193  0.7807602795702444  0.40049372698480107  1.0000
  C   C44       1.0  0.8333900340753373  0.21923972052697946  0.5995062724678338  1.0000
  C   C45       1.0  0.7882958328154255  0.5874967385471812  0.5429733958964661  1.0000
  C   C46       1.0  0.21170416688154228  0.41250326066896875  0.45702660434974507  1.0000
  C   C47       1.0  0.6541215162350156  0.4516071680622008  0.6996530647633119  1.0000
  C   C48       1.0  0.34587848345549177  0.5483928320370481  0.3003469353804967  1.0000
  C   C49       1.0  0.6615225324674566  0.5563113138099811  0.5403356714051399  1.0000
  C   C50       1.0  0.3384774681671106  0.44368868628381763  0.4596643279653535  1.0000
  C   C51       1.0  0.8471035728327547  0.5490957932812834  0.6271682142921211  1.0000
  C   C52       1.0  0.15289642685775248  0.4509042068179654  0.3728317858516874  1.0000
  C   C53       1.0  0.7767011363759405  0.4806713128671507  0.7049769780162649  1.0000
  C   C54       1.0  0.22329886331669865  0.5193286872300731  0.29502302143637016  1.0000
  C   C55       1.0  0.23090145449135682  0.6486226081535583  0.6377797601420573  1.0000
  C   C56       1.0  0.7690985461432106  0.3513773919402403  0.3622202392284362  1.0000
  C   C57       1.0  5.566647751099336e-05  0.7995459094027061  0.3070205593797553  1.0000
  C   C58       1.0  0.9999443332215884  0.200454089811419  0.6929794401752823  1.0000
  C   C59       1.0  0.3496131093138386  0.6938998443643107  0.617007180862977  1.0000
  C   C60       1.0  0.6503868903766687  0.30610015573493815  0.38299281928083156  1.0000
  C   C61       1.0  0.5965035052734488  0.4895053151551219  0.6168412277163956  1.0000
  C   C62       1.0  0.40349649441919044  0.510494684942102  0.38315877173623947  1.0000
  C   C63       1.0  0.09126082351335453  0.8653500557363795  0.24950762925795372  1.0000
  C   C64       1.0  0.9087391761771529  0.13464994436286956  0.7504923708858549  1.0000
  C   C65       1.0  0.8766760906347493  0.9741768530873521  0.48546531693272615  1.0000
  C   C66       1.0  0.12332391000414657  0.025823146125372728  0.5145346832313434  1.0000
  C   C67       1.0  0.923697629264305  0.9306063649243536  0.5731254286901085  1.0000
  C   C68       1.0  0.07630237042833427  0.06939363517287031  0.42687457076252644  1.0000
  C   C69       1.0  0.7538640467541443  0.9484749239326268  0.4718827955555704  1.0000
  C   C70       1.0  0.24613595387829135  0.051525076163196966  0.5281172045060967  1.0000
  C   C71       1.0  0.9570050995671692  0.04447517979677334  0.41284998843237786  1.0000
  C   C72       1.0  0.042994901065266364  0.9555248202990503  0.5871500116292893  1.0000
  C   C73       1.0  0.6733775847831125  0.8813559553243718  0.543716564706392  1.0000
  C   C74       1.0  0.32662241490952665  0.11864404477285188  0.45628343474624306  1.0000
  C   C75       1.0  0.7032023014267743  0.9863707890829051  0.386424605879927  1.0000
  C   C76       1.0  0.29679769826373315  0.0136292110163439  0.6135753942638816  1.0000
  C   C77       1.0  0.9220506892448015  0.8161506244742093  0.027394914135821954  1.0000
  C   C78       1.0  0.07794931044783764  0.1838493756230146  0.972605085316813  1.0000
  C   C79       1.0  0.9831560431151823  0.5461389593547173  0.90637709829495  1.0000
  C   C80       1.0  0.016843956575325048  0.45386104074453143  0.09362290184885863  1.0000
  C   C81       1.0  0.9357161297833955  0.7406824311106578  0.9576248672666071  1.0000
  C   C82       1.0  0.06428386990711177  0.2593175689885911  0.04237513287720144  1.0000
  C   C83       1.0  0.9675569621126775  0.6206790975913118  0.9787790185475724  1.0000
  C   C84       1.0  0.032443037579961455  0.379320902505912  0.02122098090506258  1.0000
  C   C85       1.0  0.9855953781555713  0.5703342644957973  0.07303960505845711  1.0000
  C   C86       1.0  0.014404622478996178  0.4296657355980013  0.9269603943120363  1.0000
  C   C87       1.0  0.9188587140901332  0.7926741579287147  0.8651915526338361  1.0000
  C   C88       1.0  0.08114128560250605  0.20732584216850927  0.1348084468187989  1.0000
  N   N1        1.0  0.6981042539565353  0.4326093497739807  0.13930668471293692  1.0000
  N   N2        1.0  0.3018957457404324  0.5673906494421693  0.8606933155332742  1.0000
  N   N3        1.0  0.6724975192743516  0.459091367203474  0.9440675661898341  1.0000
  N   N4        1.0  0.32750248041615576  0.5409086328957748  0.05593243395397444  1.0000
  N   N5        1.0  0.966974191151543  0.5784717687006725  0.6334924675932816  1.0000
  N   N6        1.0  0.03302580853896426  0.42152823139857637  0.366507532550527  1.0000
  N   N7        1.0  0.8508573865198044  0.6538499371403979  0.4675405220584247  1.0000
  N   N8        1.0  0.14914261317070313  0.3461500629588511  0.5324594780853839  1.0000
  N   N9        1.0  0.6594099920121865  0.01491757460084946  0.31620496777968576  1.0000
  N   N10       1.0  0.3405900076783207  0.9850824254983994  0.6837950323641228  1.0000
  N   N11       1.0  0.6072843248946944  0.8257551709458529  0.6033026674373243  1.0000
  N   N12       1.0  0.3927156748022734  0.17424482827029705  0.39669733280888675  1.0000
  N   N13       1.0  0.9114768114071878  0.877784707779274  0.08574310836133878  1.0000
  N   N14       1.0  0.08852318828331954  0.12221529231997502  0.9142568917824698  1.0000
  N   N15       1.0  0.9052921955600939  0.8351495231646247  0.7884983225902765  1.0000
  N   N16       1.0  0.09470780413041358  0.16485047693462415  0.21150167755353216  1.0000
  S   S1        1.0  0.6018340949172734  0.8541284105833524  0.1680996931486759  1.0000
  S   S2        1.0  0.39816590477536584  0.14587158951387127  0.8319003063039592  1.0000
  S   S3        1.0  0.5730485287429181  0.8897631745914307  0.9235668749005579  1.0000
  S   S4        1.0  0.42695147095404956  0.11023682462471932  0.07643312534565323  1.0000
  S   S5        1.0  0.22944899157089163  0.8688572136762344  0.29934620231531994  1.0000
  S   S6        1.0  0.7705510081196157  0.13114278642301455  0.7006537978284887  1.0000
  S   S7        1.0  0.37572545669390267  0.769103034210409  0.5039888509680701  1.0000
  S   S8        1.0  0.6242745429966048  0.23089696588883976  0.4960111491757384  1.0000
