data_image0
_chemical_formula_structural       H36C36N4O4S2Cl2Br2
_chemical_formula_sum              "H36 C36 N4 O4 S2 Cl2 Br2"
_cell_length_a       5.600231994142287
_cell_length_b       9.933516426772668
_cell_length_c       17.258297478994102
_cell_angle_alpha    83.12076142076492
_cell_angle_beta     81.97740670849198
_cell_angle_gamma    77.0137581638099

_space_group_name_H-M_alt    "P 1"
_space_group_IT_number       1

loop_
  _space_group_symop_operation_xyz
  'x, y, z'

loop_
  _atom_site_type_symbol
  _atom_site_label
  _atom_site_symmetry_multiplicity
  _atom_site_fract_x
  _atom_site_fract_y
  _atom_site_fract_z
  _atom_site_occupancy
  H   H1        1.0  0.6169369520472469  0.1485061931823841  0.3252771231043211  1.0000
  H   H2        1.0  0.38306304935681634  0.8514938074925693  0.6747228770742311  1.0000
  H   H3        1.0  0.29087849457467396  0.9955792386124094  0.12289588949310841  1.0000
  H   H4        1.0  0.7091215054514479  0.004420761031671148  0.8771041106845087  1.0000
  H   H5        1.0  0.559422340809067  0.8791904972322724  0.011423456309118176  1.0000
  H   H6        1.0  0.44057765943644056  0.12080950250606907  0.9885765432808703  1.0000
  H   H7        1.0  0.15348355887888035  0.7463056089497442  0.15634438801749714  1.0000
  H   H8        1.0  0.846516440958613  0.2536943918217842  0.843655611572036  1.0000
  H   H9        1.0  0.8860412248921337  0.8602722266338807  0.2675536635737842  1.0000
  H   H10       1.0  0.11395877535337415  0.13972777310446072  0.7324463360162042  1.0000
  H   H11       1.0  0.21108095444991612  0.24796201264590287  0.16297543644732793  1.0000
  H   H12       1.0  0.7889190455762057  0.7520379869981776  0.837024563730289  1.0000
  H   H13       1.0  0.23812818399572952  0.4512638148630102  0.06757603677227007  1.0000
  H   H14       1.0  0.7618718158417638  0.548736185908518  0.932423962817263  1.0000
  H   H15       1.0  0.5401958526619272  0.5972508571738172  0.07562295434914457  1.0000
  H   H16       1.0  0.4598041475835808  0.4027491425645242  0.9243770452408437  1.0000
  H   H17       1.0  0.8263482335847316  0.5323718749958573  0.1797295485118544  1.0000
  H   H18       1.0  0.17365176666077628  0.4676281247424841  0.820270451078134  1.0000
  H   H19       1.0  0.8088850781908442  0.3229228015456639  0.2727979382685861  1.0000
  H   H20       1.0  0.19111492164664923  0.6770771992258645  0.7272020613209468  1.0000
  H   H21       1.0  0.7964393516419879  0.20514754702583327  0.606941887288329  1.0000
  H   H22       1.0  0.20356064838413412  0.7948524526182471  0.3930581128892881  1.0000
  H   H23       1.0  0.6345676472303797  0.4061252822159834  0.6868767086150107  1.0000
  H   H24       1.0  0.3654323523877277  0.5938747184612841  0.31312329156215096  1.0000
  H   H25       1.0  0.8751912332337047  0.5897975818892148  0.6821073223986075  1.0000
  H   H26       1.0  0.12480876660378855  0.4102024188823135  0.3178926771909255  1.0000
  H   H27       1.0  0.2779864471416737  0.5718558682292988  0.5984275043474129  1.0000
  H   H28       1.0  0.7220135531038341  0.42814413150904257  0.4015724952425755  1.0000
  H   H29       1.0  0.4428185845757352  0.3682159842697913  0.5198450865217437  1.0000
  H   H30       1.0  0.5571814154503866  0.6317840153742891  0.4801549136558734  1.0000
  H   H31       1.0  0.39185689851849587  0.1633446353400599  0.4808026225423449  1.0000
  H   H32       1.0  0.6081431010996114  0.8366553653372076  0.5191973776348169  1.0000
  H   H33       1.0  0.09006089012892575  0.1601171727433425  0.47182083845808725  1.0000
  H   H34       1.0  0.9099391094891816  0.8398828279339249  0.5281791617190745  1.0000
  H   H35       1.0  0.23173565061939047  0.06351896126291615  0.544180658827778  1.0000
  H   H36       1.0  0.7682643494067313  0.9364810383811644  0.45581934134983904  1.0000
  C   C1        1.0  0.5740171975849278  0.9357549389990671  0.20108961909441267  1.0000
  C   C2        1.0  0.4259828020331797  0.06424506167820031  0.798910381082749  1.0000
  C   C3        1.0  0.480106916842339  0.941783688218502  0.1295502998446924  1.0000
  C   C4        1.0  0.5198930834031689  0.058216311519839276  0.8704496997452961  1.0000
  C   C5        1.0  0.6302779117401207  0.8774849488204753  0.0671830009963827  1.0000
  C   C6        1.0  0.36972208850538707  0.12251505091786598  0.9328169985936056  1.0000
  C   C7        1.0  0.8727663639000265  0.8108934216647979  0.07702590223403304  1.0000
  C   C8        1.0  0.12723363612609523  0.1891065779792825  0.922974097943584  1.0000
  C   C9        1.0  0.9657443326113806  0.8017813562473028  0.1490285455670349  1.0000
  C   C10       1.0  0.03425566901206881  0.19821864452191162  0.8509714540238885  1.0000
  C   C11       1.0  0.8148628571602693  0.8650208333615502  0.21149204130783328  1.0000
  C   C12       1.0  0.18513714267722406  0.13497916740997795  0.7885079582816997  1.0000
  C   C13       1.0  0.507874476124148  0.2731811812230955  0.22453737398819607  1.0000
  C   C14       1.0  0.4921255234939593  0.726818819454172  0.7754626261889657  1.0000
  C   C15       1.0  0.3486557948102103  0.3084091987730428  0.16589387909896366  1.0000
  C   C16       1.0  0.6513442052159116  0.6915908008710375  0.8341061210786533  1.0000
  C   C17       1.0  0.36329040599287377  0.4243798505553891  0.11271916114563764  1.0000
  C   C18       1.0  0.6367095938446196  0.5756201502161392  0.8872808384438955  1.0000
  C   C19       1.0  0.5321474145742318  0.5066037342392159  0.11733140398204102  1.0000
  C   C20       1.0  0.46785258504387556  0.49339626643805157  0.8826685961951207  1.0000
  C   C21       1.0  0.691652599773923  0.47037833260425266  0.17552192243642575  1.0000
  C   C22       1.0  0.3083474002521989  0.5296216670398277  0.8244780777411913  1.0000
  C   C23       1.0  0.6820264734092973  0.3536819441827608  0.22832051650253396  1.0000
  C   C24       1.0  0.31797352620880986  0.6463180564945066  0.7716794836746278  1.0000
  C   C25       1.0  0.1273741065721159  0.2772406096656247  0.5593394497905188  1.0000
  C   C26       1.0  0.8726258936733918  0.7227593900727167  0.44066054979946945  1.0000
  C   C27       1.0  0.9012769049142674  0.285451223961133  0.6057988307993804  1.0000
  C   C28       1.0  0.0987230951118545  0.7145487756829475  0.3942011693782366  1.0000
  C   C29       1.0  0.8116748275730229  0.3983119990005289  0.6504459237558108  1.0000
  C   C30       1.0  0.1883251726724849  0.6016880007378125  0.3495540758341775  1.0000
  C   C31       1.0  0.9471602009897897  0.5012445041156  0.6477548451323442  1.0000
  C   C32       1.0  0.052839798847703755  0.49875549665592844  0.3522451544571888  1.0000
  C   C33       1.0  0.1738392893607561  0.49080273713941025  0.6008989252043392  1.0000
  C   C34       1.0  0.8261607106653656  0.5091972625046701  0.3991010749732779  1.0000
  C   C35       1.0  0.2655927526424438  0.3781856365112198  0.5562851159682286  1.0000
  C   C36       1.0  0.7344072471950497  0.6218143642603087  0.44371488362130446  1.0000
  N   N1        1.0  0.4963941455570937  0.1626020890098535  0.28298881928386105  1.0000
  N   N2        1.0  0.5036058546884143  0.8373979107284878  0.7170111803061272  1.0000
  N   N3        1.0  0.217225199610022  0.1606779829460882  0.5113244681145143  1.0000
  N   N4        1.0  0.7827748004160997  0.8393220166979922  0.4886755320631028  1.0000
  O   O1        1.0  0.4386067624722781  0.9429853925468313  0.35277441424284006  1.0000
  O   O2        1.0  0.5613932375538436  0.05701460709724922  0.647225585934777  1.0000
  O   O3        1.0  0.13993706067036357  0.06305649646572038  0.25777880422818983  1.0000
  O   O4        1.0  0.8600629393557583  0.9369435031783601  0.7422211959494273  1.0000
  S   S1        1.0  0.38804374422086996  0.0237862166135236  0.27904640125177044  1.0000
  S   S2        1.0  0.6119562558052519  0.976213783030557  0.7209535989258465  1.0000
  Cl  Cl1       1.0  0.7630933341740801  0.15180319223516203  0.43042726043886  1.0000
  Cl  Cl2       1.0  0.2369066658520418  0.8481968074089183  0.569572739738757  1.0000
  Br  Br1       1.0  0.08080182834122326  0.7330937705674341  0.9894446800931497  1.0000
  Br  Br2       1.0  0.91919817149627  0.2669062302040942  0.010555319496383464  1.0000
