data_image0
_chemical_formula_structural       H60C46N4S2I8
_chemical_formula_sum              "H60 C46 N4 S2 I8"
_cell_length_a       8.2379083771901
_cell_length_b       11.353289211086222
_cell_length_c       15.409314707402443
_cell_angle_alpha    83.54053043455623
_cell_angle_beta     87.91176438727523
_cell_angle_gamma    75.09368054116922

_space_group_name_H-M_alt    "P 1"
_space_group_IT_number       1

loop_
  _space_group_symop_operation_xyz
  'x, y, z'

loop_
  _atom_site_type_symbol
  _atom_site_label
  _atom_site_symmetry_multiplicity
  _atom_site_fract_x
  _atom_site_fract_y
  _atom_site_fract_z
  _atom_site_occupancy
  H   H1        1.0  0.8754501082772103  0.4007035679356  0.8518123437379029  1.0000
  H   H2        1.0  0.12454989156609539  0.5992964320135552  0.14818765644502846  1.0000
  H   H3        1.0  0.9491050818144715  0.5041259883727852  0.7759710019260878  1.0000
  H   H4        1.0  0.050894918047328076  0.49587401167199563  0.22402899760373526  1.0000
  H   H5        1.0  0.16415912081123557  0.3042156700657838  0.811573375754367  1.0000
  H   H6        1.0  0.8358408790505639  0.695784329978997  0.18842662377545588  1.0000
  H   H7        1.0  0.12183993022027119  0.34027665765138454  0.6989246533562521  1.0000
  H   H8        1.0  0.8781600696230343  0.6597233422977707  0.3010753468266792  1.0000
  H   H9        1.0  0.9759960642770593  0.18514276976698185  0.693921471710584  1.0000
  H   H10       1.0  0.024003935566245804  0.8148572301821735  0.3060785284723473  1.0000
  H   H11       1.0  0.12856258937948678  0.11559717126917415  0.7728436074838454  1.0000
  H   H12       1.0  0.8714374104638187  0.884402828679981  0.22715639269908597  1.0000
  H   H13       1.0  0.8753333955033356  0.08115467718781459  0.830979387174417  1.0000
  H   H14       1.0  0.12466660433996977  0.9188453227613408  0.16902061300851443  1.0000
  H   H15       1.0  0.9066607200135668  0.19780738717743118  0.8901267198699794  1.0000
  H   H16       1.0  0.0933392798482329  0.8021926128673498  0.10987327965984357  1.0000
  H   H17       1.0  0.6396338234888883  0.8343465143598464  0.6219184245456522  1.0000
  H   H18       1.0  0.36036617637291124  0.1656534856849344  0.3780815749841708  1.0000
  H   H19       1.0  0.7777117345032002  0.5710022920817162  0.43491334137577997  1.0000
  H   H20       1.0  0.22228826534010532  0.42899770786743907  0.5650866588071513  1.0000
  H   H21       1.0  0.6494218154380961  0.6044225970921348  0.8137633636018393  1.0000
  H   H22       1.0  0.3505781844237034  0.39557740295264604  0.18623663592798373  1.0000
  H   H23       1.0  0.5657148526087487  0.7589219081669276  0.7712719218190258  1.0000
  H   H24       1.0  0.4342851472530509  0.24107809187785323  0.22872807771079723  1.0000
  H   H25       1.0  0.7842354667916133  0.7035344845204573  0.790989735573281  1.0000
  H   H26       1.0  0.2157645330516922  0.296465515428698  0.20901026460965033  1.0000
  H   H27       1.0  0.785579924286799  0.8596102725588323  0.44259692605589634  1.0000
  H   H28       1.0  0.2144200767889639  0.14038972748488318  0.557403073478167  1.0000
  H   H29       1.0  0.5667887955168642  0.8931112087627451  0.4619482298996548  1.0000
  H   H30       1.0  0.4332112043264411  0.10688879118641026  0.5380517702832766  1.0000
  H   H31       1.0  0.6590020844083925  0.7897886500291301  0.3847119151883055  1.0000
  H   H32       1.0  0.34099791543491287  0.21021134992002535  0.6152880849946257  1.0000
  H   H33       1.0  0.7225154753467995  0.3234392170347255  0.5508635129590193  1.0000
  H   H34       1.0  0.2774845257104691  0.6765607829133645  0.44913648722815247  1.0000
  H   H35       1.0  0.9283155030561829  0.3085781021684939  0.5882675137328096  1.0000
  H   H36       1.0  0.0716844967871224  0.6914218977806615  0.4117324864501216  1.0000
  H   H37       1.0  0.8761368384407611  0.3627008517346221  0.47808747952005837  1.0000
  H   H38       1.0  0.12386316142103866  0.6372991483101587  0.5219125200097646  1.0000
  H   H39       1.0  0.3924427995491567  0.9665867879662735  0.8343398436913767  1.0000
  H   H40       1.0  0.6075572002941488  0.03341321198288193  0.16566015649155472  1.0000
  H   H41       1.0  0.31546109277714846  0.23834786080554718  0.015272637654364265  1.0000
  H   H42       1.0  0.6845389070846509  0.7616521392392338  0.9847273618754587  1.0000
  H   H43       1.0  0.6579040715691175  0.11273775746768085  0.6824830033115618  1.0000
  H   H44       1.0  0.3420959282926821  0.8872622425771001  0.31751699621826124  1.0000
  H   H45       1.0  0.545754742894654  0.997802589195939  0.6993930612549478  1.0000
  H   H46       1.0  0.4542452581626147  0.0021974107521510657  0.300606938932224  1.0000
  H   H47       1.0  0.7449701603460855  0.9739594587886553  0.7476760448066594  1.0000
  H   H48       1.0  0.25502984072967744  0.02604054125506008  0.25232395472740404  1.0000
  H   H49       1.0  0.2824986167800448  0.9712013039754505  0.035042253220562675  1.0000
  H   H50       1.0  0.717501384277224  0.028798695972639517  0.9649577469666092  1.0000
  H   H51       1.0  0.16043679943894842  0.9856809469832298  0.9405177856076754  1.0000
  H   H52       1.0  0.839563200404357  0.014319052965925543  0.059482214575255904  1.0000
  H   H53       1.0  0.11799812824548381  0.1052047541208573  0.011150857712838799  1.0000
  H   H54       1.0  0.8820018715978216  0.8947952458282981  0.9888491424700926  1.0000
  H   H55       1.0  0.6696294422096895  0.34829113267001016  0.9586081565315108  1.0000
  H   H56       1.0  0.33037055763361584  0.6517088672791451  0.04139184365142063  1.0000
  H   H57       1.0  0.4644041468215072  0.3886768890413887  0.0036079316361416905  1.0000
  H   H58       1.0  0.5355958530217982  0.6113231109077666  0.9963920685467896  1.0000
  H   H59       1.0  0.5013529702832564  0.44341473619490335  0.8945450128236236  1.0000
  H   H60       1.0  0.49864702957854296  0.5565852638498775  0.10545498670619935  1.0000
  C   C1        1.0  0.6700616037106174  0.3528014967426925  0.7417555150831056  1.0000
  C   C2        1.0  0.32993839613268816  0.6471985032064628  0.2582444850998258  1.0000
  C   C3        1.0  0.9170978489537137  0.4158878785299367  0.7838616197209087  1.0000
  C   C4        1.0  0.08290215090808589  0.584112121514844  0.2161383798089142  1.0000
  C   C5        1.0  0.06745547373259551  0.3140399597255562  0.7620028261888622  1.0000
  C   C6        1.0  0.9325445273246733  0.6859600402225339  0.2379971739983095  1.0000
  C   C7        1.0  0.018545643163245078  0.19335662486543276  0.7592509203110993  1.0000
  C   C8        1.0  0.9814543566985544  0.806643375179348  0.24074907921872374  1.0000
  C   C9        1.0  0.8815495771077416  0.1771070545171839  0.8245084210846363  1.0000
  C   C10       1.0  0.11845042273556391  0.8228929454319713  0.17549157909829502  1.0000
  C   C11       1.0  0.7472141425124725  0.5240814566218216  0.6550532523769121  1.0000
  C   C12       1.0  0.2527858573493272  0.4759185434229593  0.3449467471529108  1.0000
  C   C13       1.0  0.7002753045613499  0.6460946581756043  0.6757473891524162  1.0000
  C   C14       1.0  0.29972469649591876  0.3539053417724857  0.32425261103475556  1.0000
  C   C15       1.0  0.6780967830918815  0.7395242446199581  0.606811501389683  1.0000
  C   C16       1.0  0.321903216751424  0.26047575532919726  0.39318849879324835  1.0000
  C   C17       1.0  0.7022412859718767  0.7152876933000042  0.5197365088488737  1.0000
  C   C18       1.0  0.2977587138899229  0.2847123067447767  0.48026349068094926  1.0000
  C   C19       1.0  0.753259425001898  0.5928838815578068  0.5021234246277573  1.0000
  C   C20       1.0  0.2467405748599017  0.40711611848697404  0.49787657490206566  1.0000
  C   C21       1.0  0.7766894337609668  0.49531349159395877  0.5683710504698302  1.0000
  C   C22       1.0  0.22331056608233862  0.5046865083551965  0.4316289497131013  1.0000
  C   C23       1.0  0.673463989671278  0.6792256912119743  0.7679101803716508  1.0000
  C   C24       1.0  0.3265360101905217  0.32077430883280655  0.23208981915817212  1.0000
  C   C25       1.0  0.677078342806645  0.8193100798748454  0.44819075043621487  1.0000
  C   C26       1.0  0.32292165705515463  0.18068992016993535  0.5518092490936081  1.0000
  C   C27       1.0  0.8289457433191286  0.3659288472067818  0.545336813450674  1.0000
  C   C28       1.0  0.1710542565241768  0.6340711527423735  0.45466318673225736  1.0000
  C   C29       1.0  0.5772377978095019  0.20035248932005684  0.8398950910622377  1.0000
  C   C30       1.0  0.42276220205229764  0.7996475107247241  0.16010490846758524  1.0000
  C   C31       1.0  0.5414362208485568  0.09730231943161323  0.8101571185921282  1.0000
  C   C32       1.0  0.45856377899474854  0.9026976805175422  0.1898428815908031  1.0000
  C   C33       1.0  0.4225173338732605  0.0463602678678547  0.8568219654032234  1.0000
  C   C34       1.0  0.577482665988539  0.9536397321769262  0.1431780341265996  1.0000
  C   C35       1.0  0.3407697017750999  0.09529308809962822  0.930940272428697  1.0000
  C   C36       1.0  0.6592302980682057  0.9047069118495271  0.06905972775423437  1.0000
  C   C37       1.0  0.3792983119424727  0.1985931503505077  0.9580658419299953  1.0000
  C   C38       1.0  0.6207016879008328  0.8014068495986476  0.041934158252936005  1.0000
  C   C39       1.0  0.4970661923362575  0.2528963222891974  0.9136318348408121  1.0000
  C   C40       1.0  0.502933807525542  0.7471036777555835  0.08636816468901082  1.0000
  C   C41       1.0  0.626674209351325  0.043168914151434694  0.7308317665195858  1.0000
  C   C42       1.0  0.3733257904919804  0.9568310857977206  0.2691682336633454  1.0000
  C   C43       1.0  0.21761123483708916  0.03686158385489038  0.9816072554187563  1.0000
  C   C44       1.0  0.7823887650062165  0.9631384160942649  0.018392744764175097  1.0000
  C   C45       1.0  0.5356163234827845  0.3637097136237221  0.9441136986209996  1.0000
  C   C46       1.0  0.4643836775744843  0.6362902863243679  0.0558863015661721  1.0000
  N   N1        1.0  0.7725027973919878  0.4276434512380242  0.7265493663787361  1.0000
  N   N2        1.0  0.22749720246981187  0.5723565488067567  0.2734506331510869  1.0000
  N   N3        1.0  0.7095850949561592  0.2491939117470486  0.7978808003679912  1.0000
  N   N4        1.0  0.2904149048871464  0.7508060882021067  0.20211919981493992  1.0000
  S   S1        1.0  0.4823970188227687  0.37930369770206324  0.6853321980799563  1.0000
  S   S2        1.0  0.5176029810205367  0.620696302247092  0.3146678021029751  1.0000
  I   I1        1.0  0.3078473269650018  0.5840142042124659  0.7238611434090757  1.0000
  I   I2        1.0  0.6921526728783037  0.4159857957366894  0.27613885677385575  1.0000
  I   I3        1.0  0.09941394228644196  0.8199535793432231  0.7936609964319989  1.0000
  I   I4        1.0  0.9005860575753577  0.1800464207015577  0.20633900309782394  1.0000
  I   I5        1.0  0.025114299063700274  0.9424520910691155  0.5855999038590981  1.0000
  I   I6        1.0  0.9748857007796052  0.05754790888003989  0.4144000963238332  1.0000
  I   I7        1.0  0.03427634901760316  0.6002415871356322  0.9465388807444787  1.0000
  I   I8        1.0  0.9657236508257023  0.399758412813523  0.05346111943845276  1.0000
