data_image0
_chemical_formula_structural       H18C38N2F10S4I2
_chemical_formula_sum              "H18 C38 N2 F10 S4 I2"
_cell_length_a       12.662791888904493
_cell_length_b       5.831732049380315
_cell_length_c       13.16456272311532
_cell_angle_alpha    90.0
_cell_angle_beta     109.94598919543218
_cell_angle_gamma    90.0

_space_group_name_H-M_alt    "P 1"
_space_group_IT_number       1

loop_
  _space_group_symop_operation_xyz
  'x, y, z'

loop_
  _atom_site_type_symbol
  _atom_site_label
  _atom_site_symmetry_multiplicity
  _atom_site_fract_x
  _atom_site_fract_y
  _atom_site_fract_z
  _atom_site_occupancy
  H   H1        1.0  0.420843455437411  0.6560510938438171  0.4544904670198035  1.0000
  H   H2        1.0  0.5791565450966268  0.15605109464806474  0.5455095332790609  1.0000
  H   H3        1.0  0.5571769564977577  0.6724589087416514  0.34217074655725926  1.0000
  H   H4        1.0  0.44282304296318  0.1724589078311426  0.6578292529284195  1.0000
  H   H5        1.0  0.7879968181846897  0.6806034084542276  0.1054127324748776  1.0000
  H   H6        1.0  0.21200318155783532  0.18060340925847532  0.8945872678188735  1.0000
  H   H7        1.0  0.9154813209374386  0.5995832662393248  0.00402539025072278  1.0000
  H   H8        1.0  0.08451867880508629  0.09958326532881605  0.9959746100430283  1.0000
  H   H9        1.0  0.2806914851142472  0.010880064355278843  0.4092858281627986  1.0000
  H   H10       1.0  0.7193085143466904  0.5108800652657876  0.5907141713228802  1.0000
  H   H11       1.0  0.5990238453641861  0.4125971048782463  0.02699302006959728  1.0000
  H   H12       1.0  0.40097615409675147  0.9125971057887551  0.9730069794160816  1.0000
  H   H13       1.0  0.47396887596877496  0.40465149976339476  0.14906075370120453  1.0000
  H   H14       1.0  0.5260311245652629  0.9046514989591471  0.85093924659766  1.0000
  H   H15       1.0  0.8285031996081753  0.20248632481759476  0.8283774372715278  1.0000
  H   H16       1.0  0.1714968009258626  0.7024863257281035  0.17162256302733667  1.0000
  H   H17       1.0  0.6953315687653091  0.3105880336515919  0.9205045912180104  1.0000
  H   H18       1.0  0.3046684306956285  0.8105880328473442  0.07949540826766832  1.0000
  C   C1        1.0  0.7672488658894262  0.22404659866682977  0.3877839127715642  1.0000
  C   C2        1.0  0.23275113385309878  0.7240465978625821  0.612216087522187  1.0000
  C   C3        1.0  0.8261785332056271  0.28230210442795267  0.3194415328419433  1.0000
  C   C4        1.0  0.17382146732841075  0.782302103623705  0.6805584674569211  1.0000
  C   C5        1.0  0.9090771875141698  0.14185530696457593  0.3055535222837294  1.0000
  C   C6        1.0  0.09092281301986804  0.6418553061603282  0.694446478015135  1.0000
  C   C7        1.0  0.9297550835496793  0.9342592807532965  0.3611453751289554  1.0000
  C   C8        1.0  0.07024491619284579  0.4342592798427877  0.6388546251647959  1.0000
  C   C9        1.0  0.8711429273337907  0.8707386411108488  0.42906327964445784  1.0000
  C   C10       1.0  0.12885707320024709  0.3707386419150965  0.5709367206544066  1.0000
  C   C11       1.0  0.7904090761004243  0.0166976533173103  0.443463817613115  1.0000
  C   C12       1.0  0.2095909241520261  0.5166976525130627  0.5565361818776771  1.0000
  C   C13       1.0  0.4190489958138782  0.7905222206651067  0.396774919494547  1.0000
  C   C14       1.0  0.5809510047201597  0.29052222146935447  0.6032250808043175  1.0000
  C   C15       1.0  0.492147118691191  0.799001910675085  0.3360368293934202  1.0000
  C   C16       1.0  0.5078528818428469  0.29900191147933264  0.6639631709054442  1.0000
  C   C17       1.0  0.4739014614325564  0.988972574728095  0.268559511967688  1.0000
  C   C18       1.0  0.5260985391014814  0.4889725755323428  0.7314404883311764  1.0000
  C   C19       1.0  0.5307491630103173  0.05452696168264273  0.1950641070314736  1.0000
  C   C20       1.0  0.4692508375237206  0.554526960878395  0.8049358932673908  1.0000
  C   C21       1.0  0.6515658258484914  0.06192958060176596  0.07864665945981462  1.0000
  C   C22       1.0  0.3484341736124463  0.5619295815122747  0.9213533400258642  1.0000
  C   C23       1.0  0.7282478525431326  0.004571720678221666  0.022187543330720455  1.0000
  C   C24       1.0  0.2717521469178049  0.504571719873974  0.9778124561549584  1.0000
  C   C25       1.0  0.7922072166879475  0.8012476620040391  0.043687436803823  1.0000
  C   C26       1.0  0.2077927830545776  0.30124766280828674  0.9563125634899283  1.0000
  C   C27       1.0  0.8646918596093172  0.7553912581542743  0.9874966949514276  1.0000
  C   C28       1.0  0.13530813985162038  0.255391258958522  0.012503304534251226  1.0000
  C   C29       1.0  0.34520661905819083  0.9725952807798677  0.3748361679984392  1.0000
  C   C30       1.0  0.6547933806843341  0.472595279869359  0.625163832295312  1.0000
  C   C31       1.0  0.5924562377676725  0.26434350668834483  0.07471056020336846  1.0000
  C   C32       1.0  0.40754376276636534  0.7643435058840972  0.9252894400954961  1.0000
  C   C33       1.0  0.5248230676352731  0.26078470291885314  0.14025126382830955  1.0000
  C   C34       1.0  0.4751769321072518  0.7607847038293619  0.8597487364654416  1.0000
  C   C35       1.0  0.8168820401029359  0.0914901877319098  0.8905183314621559  1.0000
  C   C36       1.0  0.18311795935800174  0.5914901886424185  0.10948166802352294  1.0000
  C   C37       1.0  0.7423501098258645  0.15129878954122347  0.9425972446335888  1.0000
  C   C38       1.0  0.25764989042658604  0.6512987887369758  0.0574027548572032  1.0000
  N   N1        1.0  0.8775016628514546  0.8967802353943408  0.9119667316391736  1.0000
  N   N2        1.0  0.1224983368910704  0.3967802361985886  0.0880332686545777  1.0000
  F   F1        1.0  0.6887190444511159  0.3666627207653026  0.4011996466629188  1.0000
  F   F2        1.0  0.31128095500982167  0.8666627199610548  0.59880035282276  1.0000
  F   F3        1.0  0.010691053830894645  0.7907027502215207  0.3531445520364356  1.0000
  F   F4        1.0  0.9893089459116303  0.2907027510257685  0.6468554482573156  1.0000
  F   F5        1.0  0.8916895955663975  0.6689187615220626  0.4825610592611133  1.0000
  F   F6        1.0  0.10831040496764041  0.16891876232631034  0.5174389410377511  1.0000
  F   F7        1.0  0.7352809406843044  0.9557373165991494  0.5106804892891487  1.0000
  F   F8        1.0  0.26471905956814606  0.4557373174033972  0.4893195102016434  1.0000
  F   F9        1.0  0.8013897499377508  0.4862618439921857  0.2670795508243409  1.0000
  F   F10       1.0  0.19861024980477415  0.986261843187938  0.7329204494694104  1.0000
  S   S1        1.0  0.6211270369222212  0.8662952219378512  0.16419384714492055  1.0000
  S   S2        1.0  0.37887296361181666  0.366295222742099  0.8358061531539439  1.0000
  S   S3        1.0  0.3648945597211141  0.1546774478597403  0.2807830439271935  1.0000
  S   S4        1.0  0.6351054397398236  0.6546774470554926  0.7192169555584854  1.0000
  I   I1        1.0  0.006092523589621928  0.25276305521558273  0.20960017193465522  1.0000
  I   I2        1.0  0.993907476944416  0.7527630544113351  0.7903998283642092  1.0000
