data_image0
_chemical_formula_structural       H48C92N4O4F24S4I4
_chemical_formula_sum              "H48 C92 N4 O4 F24 S4 I4"
_cell_length_a       8.842613566177317
_cell_length_b       9.964562851622755
_cell_length_c       24.231485047089258
_cell_angle_alpha    81.61839579564166
_cell_angle_beta     78.77025694818575
_cell_angle_gamma    88.7314586175907

_space_group_name_H-M_alt    "P 1"
_space_group_IT_number       1

loop_
  _space_group_symop_operation_xyz
  'x, y, z'

loop_
  _atom_site_type_symbol
  _atom_site_label
  _atom_site_symmetry_multiplicity
  _atom_site_fract_x
  _atom_site_fract_y
  _atom_site_fract_z
  _atom_site_occupancy
  H   H1        1.0  0.08343496579843844  0.5869061781379321  0.7948612991606603  1.0000
  H   H2        1.0  0.9165650346967793  0.41309382106132125  0.20513870089096947  1.0000
  H   H3        1.0  0.002258679523933446  0.36435190267611667  0.9647084358869326  1.0000
  H   H4        1.0  0.9977413209506986  0.6356480975271364  0.03529156416410071  1.0000
  H   H5        1.0  0.8646905769812261  0.1930254792780747  0.8291153745392259  1.0000
  H   H6        1.0  0.1353094223812785  0.8069745199237023  0.17088462551578834  1.0000
  H   H7        1.0  0.6437130452236814  0.8068531533466516  0.15917105931639192  1.0000
  H   H8        1.0  0.35628695525095044  0.1931468468566014  0.8408289407346415  1.0000
  H   H9        1.0  0.4206146217443208  0.41465627771697267  0.2057274421795609  1.0000
  H   H10       1.0  0.5793853776181838  0.5853437214848043  0.7942725578754533  1.0000
  H   H11       1.0  0.47622474752294564  0.6199293204069114  0.0334091120587195  1.0000
  H   H12       1.0  0.5237752518189733  0.38007067979886555  0.9665908879956984  1.0000
  H   H13       1.0  0.38300381204059775  0.8778093281693777  0.3262967190745997  1.0000
  H   H14       1.0  0.6169961884546199  0.12219067102987563  0.67370328097703  1.0000
  H   H15       1.0  0.6642630289193454  0.30456788310969163  0.2357381282518533  1.0000
  H   H16       1.0  0.3357369715758723  0.6954321160895616  0.7642618717997764  1.0000
  H   H17       1.0  0.6546266690896845  0.13857570306302522  0.5697406781718594  1.0000
  H   H18       1.0  0.3453733315992213  0.8614242972851741  0.43025932145399925  1.0000
  H   H19       1.0  0.7879624852823095  0.3962168315815844  0.31329515759271126  1.0000
  H   H20       1.0  0.21203751405960933  0.6037831686241923  0.6867048424617066  1.0000
  H   H21       1.0  0.2745398591299556  0.8304075150759689  0.2338270163971722  1.0000
  H   H22       1.0  0.7254601413446765  0.16959248512728411  0.7661729836538612  1.0000
  H   H23       1.0  0.3846320850277453  0.04705697941866705  0.15043193274465516  1.0000
  H   H24       1.0  0.6153679143141735  0.9529430207871099  0.8495680673097626  1.0000
  H   H25       1.0  0.8998715275829557  0.4019912474018402  0.38835452576359614  1.0000
  H   H26       1.0  0.10012847175896326  0.5980087528039367  0.6116454742908217  1.0000
  H   H27       1.0  0.9700550817566385  0.430846282561569  0.47915644908952953  1.0000
  H   H28       1.0  0.029944918717993266  0.5691537176416842  0.5208435509615038  1.0000
  H   H29       1.0  0.5695294387405192  0.0969102830388713  0.48226446873096207  1.0000
  H   H30       1.0  0.4304705606013996  0.9030897171669057  0.5177355313234558  1.0000
  H   H31       1.0  0.11436400567181357  0.1197317630805187  0.6740399722713677  1.0000
  H   H32       1.0  0.8856359950170923  0.8802682372676807  0.325960027354491  1.0000
  H   H33       1.0  0.8074659465047381  0.8931815102796652  0.4298972738980888  1.0000
  H   H34       1.0  0.19253405399047951  0.10681848891958799  0.5701027261535409  1.0000
  H   H35       1.0  0.8349803662311824  0.6896491139046562  0.7602514434555425  1.0000
  H   H36       1.0  0.16501963311073642  0.3103508863011208  0.2397485565988754  1.0000
  H   H37       1.0  0.6386726984118144  0.5711727816009701  0.603566058360462  1.0000
  H   H38       1.0  0.3613273020628174  0.42882721860228307  0.3964339416905714  1.0000
  H   H39       1.0  0.22666291698111637  0.1573286097462211  0.7672324167033876  1.0000
  H   H40       1.0  0.7733370823813882  0.842671389455556  0.23276758335162662  1.0000
  H   H41       1.0  0.7087366264141581  0.6033607636633918  0.6824797657341258  1.0000
  H   H42       1.0  0.2912633740604739  0.3966392365398612  0.3175202343169075  1.0000
  H   H43       1.0  0.5899520891552131  0.5335194309790299  0.510762682974645  1.0000
  H   H44       1.0  0.4100479115336926  0.46648056936916954  0.4892373166512136  1.0000
  H   H45       1.0  0.11505062272575872  0.9368322802854239  0.8481610930152519  1.0000
  H   H46       1.0  0.88494937661616  0.063167719920353  0.15183890703916603  1.0000
  H   H47       1.0  0.8759563477801381  0.9427951131781048  0.5189498826221635  1.0000
  H   H48       1.0  0.12404365269449384  0.05720488702514841  0.4810501174288699  1.0000
  C   C1        1.0  0.971997724058768  0.3910991322707114  0.8047614157723724  1.0000
  C   C2        1.0  0.02800227528315053  0.6089008679350655  0.1952385842820455  1.0000
  C   C3        1.0  0.11955117645102659  0.6004315727332656  0.9030306940855183  1.0000
  C   C4        1.0  0.8804488228908924  0.3995684274725113  0.09696930596889956  1.0000
  C   C5        1.0  0.9323371705683599  0.3781960678267446  0.700704527340243  1.0000
  C   C6        1.0  0.0676628287941447  0.6218039313750325  0.29929547271477136  1.0000
  C   C7        1.0  0.05055926651387409  0.4861122525842392  0.8815525184650851  1.0000
  C   C8        1.0  0.9494407339813435  0.513887746615014  0.11844748158654457  1.0000
  C   C9        1.0  0.04007761618691868  0.4968297618607126  0.8243152214744454  1.0000
  C   C10       1.0  0.9599223831550001  0.5031702383450644  0.17568477857997253  1.0000
  C   C11       1.0  0.9938733798729642  0.3721376968637665  0.9202233395560935  1.0000
  C   C12       1.0  0.006126619468954488  0.6278623033420103  0.07977666049832434  1.0000
  C   C13       1.0  0.9161235228299036  0.275869145146085  0.8438145983949079  1.0000
  C   C14       1.0  0.08387647764472848  0.7241308550571681  0.1561854016561253  1.0000
  C   C15       1.0  0.9561184744747556  0.39374286295739647  0.7474649594895497  1.0000
  C   C16       1.0  0.0438815259998762  0.6062571372458565  0.25253504056148374  1.0000
  C   C17       1.0  0.8710881814291704  0.1399320994283378  0.940277164958614  1.0000
  C   C18       1.0  0.12891181925973538  0.8600679009198615  0.05972283466724453  1.0000
  C   C19       1.0  0.9270047397152573  0.26730044060779545  0.9006575054243033  1.0000
  C   C20       1.0  0.07299526075937453  0.7326995595954576  0.09934249462673002  1.0000
  C   C21       1.0  0.44156755348380994  0.5058469861160704  0.11804215164647681  1.0000
  C   C22       1.0  0.558432446990822  0.49415301408718276  0.8819578484045565  1.0000
  C   C23       1.0  0.5331402700848111  0.6111431396347486  0.18973418665657618  1.0000
  C   C24       1.0  0.4668597292571078  0.3888568605710282  0.8102658133978418  1.0000
  C   C25       1.0  0.5871546786422411  0.7220047534554405  0.14773355931076904  1.0000
  C   C26       1.0  0.41284532185297657  0.2779952457438128  0.8522664407408607  1.0000
  C   C27       1.0  0.3747675230211438  0.3852785877280899  0.10019619853874968  1.0000
  C   C28       1.0  0.6252324774534881  0.6147214124751633  0.8998038015122836  1.0000
  C   C29       1.0  0.5664686711102758  0.7239230594946209  0.09215984285530111  1.0000
  C   C30       1.0  0.4335313282316431  0.276076940711156  0.9078401571991168  1.0000
  C   C31       1.0  0.4604981598278015  0.5020638093231172  0.17408135044346595  1.0000
  C   C32       1.0  0.5395018397283912  0.4979361910276059  0.8259186491857773  1.0000
  C   C33       1.0  0.49283832220227797  0.6166817195030151  0.0768429103919349  1.0000
  C   C34       1.0  0.5071616782723538  0.383318280700238  0.9231570896590984  1.0000
  C   C35       1.0  0.5542083490987848  0.6126800176801377  0.24624356915176587  1.0000
  C   C36       1.0  0.4457916502431341  0.3873199825256392  0.753756430902652  1.0000
  C   C37       1.0  0.5773054453197547  0.6237529727944322  0.29355540027394506  1.0000
  C   C38       1.0  0.4226945540221642  0.3762470274113447  0.7064445997804728  1.0000
  C   C39       1.0  0.6299828732570563  0.8405181717649863  0.04737877038263323  1.0000
  C   C40       1.0  0.3700171260848626  0.15948182844079065  0.9526212296717846  1.0000
  C   C41       1.0  0.401375557579703  0.9408082409452342  0.2851784849587534  1.0000
  C   C42       1.0  0.598624441762216  0.05919175926054278  0.7148215150956645  1.0000
  C   C43       1.0  0.6602372711190027  0.17123770305165156  0.4794370622063578  1.0000
  C   C44       1.0  0.33976272822291614  0.8287622971541255  0.5205629378480602  1.0000
  C   C45       1.0  0.8804536997666685  0.3580791983730401  0.4785568643887522  1.0000
  C   C46       1.0  0.11954630072854906  0.6419208008262133  0.5214431356628775  1.0000
  C   C47       1.0  0.6525282885412241  0.2557442554348654  0.2794501767769871  1.0000
  C   C48       1.0  0.3474717121682674  0.744255743909334  0.7205498228494679  1.0000
  C   C49       1.0  0.568432995095128  0.13650012355679192  0.2997886643839351  1.0000
  C   C50       1.0  0.4315670054000896  0.8634998756424614  0.7002113356676947  1.0000
  C   C51       1.0  0.7067735416132593  0.19504072553863852  0.5286284612773712  1.0000
  C   C52       1.0  0.2932264577286595  0.8049592746671385  0.47137153877704674  1.0000
  C   C53       1.0  0.6845516694445842  0.22391631673419435  0.37395835138241473  1.0000
  C   C54       1.0  0.3154483299179205  0.7760836824675829  0.6260416486725995  1.0000
  C   C55       1.0  0.8409213611263617  0.34175972081214795  0.4273938643972031  1.0000
  C   C56       1.0  0.15907863934827005  0.6582402793911051  0.5726061356538302  1.0000
  C   C57       1.0  0.7278215808560465  0.2449536795186319  0.4265317827755614  1.0000
  C   C58       1.0  0.2721784196185854  0.7550463206846211  0.5734682172754719  1.0000
  C   C59       1.0  0.7186282360636521  0.30398055387314016  0.3211164409074172  1.0000
  C   C60       1.0  0.2813717644109798  0.696019446330113  0.6788835591436162  1.0000
  C   C61       1.0  0.485094198552334  0.059876610087818714  0.2699718955856401  1.0000
  C   C62       1.0  0.514905801922298  0.9401233901154344  0.7300281044653932  1.0000
  C   C63       1.0  0.344906408814466  0.9160172571736055  0.23644535937058236  1.0000
  C   C64       1.0  0.655093590527453  0.08398274303217139  0.7635546406838355  1.0000
  C   C65       1.0  0.39685018895806207  0.021013729147673344  0.19431012843032702  1.0000
  C   C66       1.0  0.6031498103838567  0.9789862710581035  0.805689871624091  1.0000
  C   C67       1.0  0.09640582721746117  0.05399834906233887  0.7145072828287942  1.0000
  C   C68       1.0  0.903594173257171  0.9460016511409142  0.2854927172222392  1.0000
  C   C69       1.0  0.7656983302276404  0.7603556479394227  0.5702386315621796  1.0000
  C   C70       1.0  0.23430166911427835  0.23964435226635425  0.42976136849223834  1.0000
  C   C71       1.0  0.9267148918262923  0.8620950280873818  0.6978269606648239  1.0000
  C   C72       1.0  0.07328510772990032  0.13790497226334134  0.30217303896441916  1.0000
  C   C73       1.0  0.7735225819129068  0.8230600631839758  0.46924556970735304  1.0000
  C   C74       1.0  0.2264774176432859  0.17693993716674733  0.5307544299218901  1.0000
  C   C75       1.0  0.8110292427417641  0.8508591256020671  0.5194361768481804  1.0000
  C   C76       1.0  0.18897075773286792  0.14914087460118614  0.48056382320285296  1.0000
  C   C77       1.0  0.8071972860528323  0.7802036709762529  0.6232380137515826  1.0000
  C   C78       1.0  0.19280271328908677  0.2197963292295241  0.37676198630283536  1.0000
  C   C79       1.0  0.8444720409668179  0.741483624052595  0.7171016111263606  1.0000
  C   C80       1.0  0.15552795972208783  0.25851637629560437  0.28289838849949805  1.0000
  C   C81       1.0  0.6806659674248553  0.6451830414170757  0.566370125521576  1.0000
  C   C82       1.0  0.31933403193764925  0.35481695778470157  0.43362987453343826  1.0000
  C   C83       1.0  0.15443850609828816  0.07383311671036367  0.76357669829664  1.0000
  C   C84       1.0  0.8455614934579044  0.9261668836403595  0.23642330133260325  1.0000
  C   C85       1.0  0.7771453818502031  0.6960090735196396  0.6751789575447229  1.0000
  C   C86       1.0  0.22285461749171565  0.30399092668613736  0.324821042509695  1.0000
  C   C87       1.0  0.011581807630310045  0.9353861991473957  0.7283675617510217  1.0000
  C   C88       1.0  0.9884181928649076  0.0646138000518574  0.2716324383006079  1.0000
  C   C89       1.0  0.6513270210631613  0.6245935856225081  0.5141881021088874  1.0000
  C   C90       1.0  0.34867297941147046  0.375406414580745  0.4858118979421459  1.0000
  C   C91       1.0  0.10209160270078502  0.9665467685067107  0.8045464761959629  1.0000
  C   C92       1.0  0.8979083977738468  0.03345323169654233  0.19545352385507045  1.0000
  N   N1        1.0  0.8157032475356094  0.28677630154163875  0.5288979873890491  1.0000
  N   N2        1.0  0.1842967529390226  0.7132236986616143  0.4711020126619843  1.0000
  N   N3        1.0  0.6959721484398774  0.7109533313614392  0.4658265353120295  1.0000
  N   N4        1.0  0.30402785203475446  0.28904666884181374  0.5341734647390038  1.0000
  O   O1        1.0  0.48290537193301797  0.10997071343279803  0.21387101824030394  1.0000
  O   O2        1.0  0.517094627408901  0.8900292867729789  0.786128981814114  1.0000
  O   O3        1.0  0.014550394445993304  0.8808964411745593  0.7839479678638701  1.0000
  O   O4        1.0  0.9854496048959257  0.11910355903121753  0.2160520321905478  1.0000
  F   F1        1.0  0.228436957832356  0.6716710229932837  0.8621018644857109  1.0000
  F   F2        1.0  0.7715630428771356  0.32832897635091585  0.13789813514074392  1.0000
  F   F3        1.0  0.18870737337321358  0.5544748794805598  0.9479414863582919  1.0000
  F   F4        1.0  0.8112926271014183  0.445525120722693  0.05205851369274157  1.0000
  F   F5        1.0  0.011441070785359478  0.6926075696698565  0.9215526819625739  1.0000
  F   F6        1.0  0.9885589285565594  0.3073924305359205  0.0784473180918441  1.0000
  F   F7        1.0  0.8309975821472297  0.16180997407911896  0.9952208886519884  1.0000
  F   F8        1.0  0.16900241832740195  0.8381900261241341  0.004779111399045094  1.0000
  F   F9        1.0  0.7451986706434783  0.08563689077214114  0.9261126907920076  1.0000
  F   F10       1.0  0.2548013298311536  0.9143631094311119  0.07388730925902577  1.0000
  F   F11       1.0  0.9813467940893109  0.04116291342791557  0.9379373960666482  1.0000
  F   F12       1.0  0.01865320546688181  0.9588370869228077  0.062062603562595034  1.0000
  F   F13       1.0  0.48549675195926356  0.29102584608664045  0.08645908855138516  1.0000
  F   F14       1.0  0.5145032485359541  0.7089741531126129  0.9135409115002444  1.0000
  F   F15       1.0  0.310388494084934  0.420610064103762  0.05330881996087463  1.0000
  F   F16       1.0  0.6896115064102838  0.5793899350954913  0.946691180090755  1.0000
  F   F17       1.0  0.2634534876318615  0.31960128896000556  0.1418848096652283  1.0000
  F   F18       1.0  0.7365465128427703  0.6803987112432477  0.8581151903858051  1.0000
  F   F19       1.0  0.6266143567165461  0.9593463061430666  0.06941253929318005  1.0000
  F   F20       1.0  0.3733856437580858  0.04065369406018647  0.9305874607578535  1.0000
  F   F21       1.0  0.5518808144993348  0.8591905368954386  0.003925815359147542  1.0000
  F   F22       1.0  0.4481191848425839  0.1408094633103384  0.9960741846952704  1.0000
  F   F23       1.0  0.7809948027026713  0.8188598492018223  0.023674697062675266  1.0000
  F   F24       1.0  0.2190051979862346  0.18114015114637694  0.9763253025631833  1.0000
  S   S1        1.0  0.5723441419392542  0.08529817213848198  0.37067291213380554  1.0000
  S   S2        1.0  0.4276558585353777  0.9147018280647711  0.6293270879172278  1.0000
  S   S3        1.0  0.9179162307663016  0.9188717623448505  0.6276837107872181  1.0000
  S   S4        1.0  0.08208376992260416  0.08112823800334898  0.37231628883864054  1.0000
  I   I1        1.0  0.8853064451236915  0.33953950737900357  0.6257342224066742  1.0000
  I   I2        1.0  0.11469355535094038  0.6604604928242495  0.37426577764435925  1.0000
  I   I3        1.0  0.6253207500053721  0.6568095350787914  0.36921662913213044  1.0000
  I   I4        1.0  0.3746792495508207  0.3431904652719318  0.6307833704971127  1.0000
