data_image0
_chemical_formula_structural       H20C44N8F8I4
_chemical_formula_sum              "H20 C44 N8 F8 I4"
_cell_length_a       9.622266889797592
_cell_length_b       5.272963099545911
_cell_length_c       20.335731404201844
_cell_angle_alpha    90.0
_cell_angle_beta     101.15228179013177
_cell_angle_gamma    90.0

_space_group_name_H-M_alt    "P 1"
_space_group_IT_number       1

loop_
  _space_group_symop_operation_xyz
  'x, y, z'

loop_
  _atom_site_type_symbol
  _atom_site_label
  _atom_site_symmetry_multiplicity
  _atom_site_fract_x
  _atom_site_fract_y
  _atom_site_fract_z
  _atom_site_occupancy
  H   H1        1.0  0.13034402327896719  0.3524490850618779  0.47584440701139125  1.0000
  H   H2        1.0  0.8696559770015215  0.852449085104936  0.024155592621835895  1.0000
  H   H3        1.0  0.8696559774143868  0.6475509150242387  0.5241555931092216  1.0000
  H   H4        1.0  0.13034402348310622  0.14755091498118036  0.9758444069975707  1.0000
  H   H5        1.0  0.06104443422360015  0.47945365485635855  0.35443645841460153  1.0000
  H   H6        1.0  0.9389555662656148  0.9794536548994168  0.145563541719832  1.0000
  H   H7        1.0  0.9389555664697539  0.5205463452297578  0.6455635417060114  1.0000
  H   H8        1.0  0.06104443338924885  0.02054634518669965  0.854436458402637  1.0000
  H   H9        1.0  0.8931486213634233  0.4006815864465172  0.24043112995519061  1.0000
  H   H10       1.0  0.10685137808730129  0.9006815864895754  0.2595688701810991  1.0000
  H   H11       1.0  0.10685137829144024  0.5993184117431324  0.7595688701672784  1.0000
  H   H12       1.0  0.8931486215675626  0.09931841170007419  0.74043112994137  1.0000
  H   H13       1.0  0.6907358781607452  0.14245306402100297  0.17711389518851753  1.0000
  H   H14       1.0  0.3092641212899796  0.6424530640640612  0.3228861049477722  1.0000
  H   H15       1.0  0.3092641214941186  0.8575469360651136  0.8228861049339514  1.0000
  H   H16       1.0  0.6907358783648841  0.35754693602205523  0.6771138951746968  1.0000
  H   H17       1.0  0.5933786597411488  0.7879834452772512  0.23477545463079574  1.0000
  H   H18       1.0  0.4066213395008497  0.28798344523419295  0.2652245450042876  1.0000
  H   H19       1.0  0.4066213399137149  0.21201655480886533  0.7652245454916733  1.0000
  H   H20       1.0  0.5933786599452878  0.7120165548519236  0.734775454616975  1.0000
  C   C1        1.0  0.5486804028071831  0.1925005942270699  0.4607995815886318  1.0000
  C   C2        1.0  0.4513195974733058  0.6925005942701281  0.0392004180445953  1.0000
  C   C3        1.0  0.45131959767744473  0.8074994058590466  0.5392004180307746  1.0000
  C   C4        1.0  0.548680403011322  0.3074994058159884  0.9607995815748112  1.0000
  C   C5        1.0  0.4242206583006687  0.058798319682286354  0.4373303071727422  1.0000
  C   C6        1.0  0.5757793421885463  0.5587983197253447  0.06266969296169136  1.0000
  C   C7        1.0  0.575779341354195  0.9412016785073631  0.5626696929497268  1.0000
  C   C8        1.0  0.4242206585048076  0.441201678464305  0.9373303071589214  1.0000
  C   C9        1.0  0.3767527609738341  0.8705598395701483  0.47552792451667597  1.0000
  C   C10       1.0  0.623247239515381  0.37055983952709004  0.02447207561775761  1.0000
  C   C11       1.0  0.6232472397195199  0.1294401586195013  0.5244720756039368  1.0000
  C   C12       1.0  0.37675276117797313  0.6294401586625595  0.9755279245028553  1.0000
  C   C13       1.0  0.9807705511765276  0.040310357950030885  0.46447549228351176  1.0000
  C   C14       1.0  0.019229448274197165  0.5403103579930891  0.03552450785277795  1.0000
  C   C15       1.0  0.019229448478336165  0.9596896421360857  0.5355245078389573  1.0000
  C   C16       1.0  0.9807705513806666  0.45968964209302743  0.9644754922696912  1.0000
  C   C17       1.0  0.04953135484164417  0.25091023112108174  0.4408569634248712  1.0000
  C   C18       1.0  0.9504686454388447  0.75091023116414  0.05914303620835594  1.0000
  C   C19       1.0  0.9504686456429836  0.7490897689650348  0.5591430361945353  1.0000
  C   C20       1.0  0.049531354007292874  0.2490897689219765  0.9408569634129066  1.0000
  C   C21       1.0  0.011286320647690345  0.31919226405072737  0.37461363821266686  1.0000
  C   C22       1.0  0.9887136788030344  0.8191922640937855  0.12538636192362282  1.0000
  C   C23       1.0  0.9887136790071732  0.6808077360353891  0.6253863619098021  1.0000
  C   C24       1.0  0.011286320851829373  0.1808077359923309  0.8746136381988462  1.0000
  C   C25       1.0  0.9030505503969861  0.18204856204714692  0.33196006160588404  1.0000
  C   C26       1.0  0.09694945009222898  0.6820485620902051  0.16803993852854957  1.0000
  C   C27       1.0  0.09694945029636792  0.8179514380389695  0.6680399385147288  1.0000
  C   C28       1.0  0.9030505495626346  0.3179514379959113  0.8319600615939193  1.0000
  C   C29       1.0  0.8487096868769  0.2420589933788682  0.264013379554807  1.0000
  C   C30       1.0  0.15129031340358892  0.7420589934219264  0.2359866200784202  1.0000
  C   C31       1.0  0.15129031256923764  0.7579410067072483  0.7359866200664557  1.0000
  C   C32       1.0  0.848709687081039  0.25794100666419006  0.7640133795409862  1.0000
  C   C33       1.0  0.7376267059289884  0.10153768382071689  0.2290659873216691  1.0000
  C   C34       1.0  0.2623732945602267  0.6015376838637752  0.27093401281276447  1.0000
  C   C35       1.0  0.26237329476436566  0.8984623162653995  0.7709340127989438  1.0000
  C   C36       1.0  0.737626705094637  0.39846231622234135  0.7290659873097045  1.0000
  C   C37       1.0  0.6818006913300998  0.8999928143644087  0.26184785174702774  1.0000
  C   C38       1.0  0.31819930915911515  0.3999928143213505  0.2381521483874058  1.0000
  C   C39       1.0  0.31819930936325413  0.1000071857217078  0.7381521483735851  1.0000
  C   C40       1.0  0.681800691534239  0.6000071857647661  0.7618478517332071  1.0000
  C   C41       1.0  0.8396860837432918  0.9745040090347894  0.3609121669780846  1.0000
  C   C42       1.0  0.160313915707433  0.47450400899173123  0.1390878331582051  1.0000
  C   C43       1.0  0.16031391591157193  0.025495991051326997  0.6390878331443843  1.0000
  C   C44       1.0  0.8396860839474308  0.5254959910943853  0.860912166964264  1.0000
  N   N1        1.0  0.8805165780464166  0.9060357771916555  0.42570637391873994  1.0000
  N   N2        1.0  0.11948342244279844  0.40603577714859723  0.0742936262156937  1.0000
  N   N3        1.0  0.11948342264693741  0.093964222894461  0.574293626201873  1.0000
  N   N4        1.0  0.8805165772120653  0.5939642229375193  0.9257063739067755  1.0000
  N   N5        1.0  0.7308341524665131  0.8366003092985594  0.32502865334574355  1.0000
  N   N6        1.0  0.26916584698421175  0.3366003092555013  0.17497134679054613  1.0000
  N   N7        1.0  0.2691658471883507  0.163399690787557  0.6749713467767254  1.0000
  N   N8        1.0  0.730834152670652  0.6633996908306152  0.8250286533319228  1.0000
  F   F1        1.0  0.347297712800847  0.10642766683657005  0.3750101134143138  1.0000
  F   F2        1.0  0.6527022866498778  0.6064276668796283  0.12498988672197593  1.0000
  F   F3        1.0  0.6527022868540169  0.8935723332495463  0.6249898867081553  1.0000
  F   F4        1.0  0.34729771300498596  0.3935723332064882  0.8750101134004931  1.0000
  F   F5        1.0  0.2565092341942596  0.7427213041443931  0.44813088960241826  1.0000
  F   F6        1.0  0.7434907652564652  0.2427213041013348  0.0518691105338714  1.0000
  F   F7        1.0  0.7434907654606042  0.2572786959417235  0.5518691105200507  1.0000
  F   F8        1.0  0.2565092343983986  0.7572786959847817  0.9481308895885976  1.0000
  I   I1        1.0  0.6246608094051592  0.47522950619847815  0.40313707430959245  1.0000
  I   I2        1.0  0.3753391910840558  0.9752295062415364  0.09686292582484106  1.0000
  I   I3        1.0  0.37533919128819476  0.5247704938876383  0.5968629258110203  1.0000
  I   I4        1.0  0.624660808570808  0.0247704938445801  0.9031370742976279  1.0000
