data_image0
_chemical_formula_structural       H42C18N2O14S4
_chemical_formula_sum              "H42 C18 N2 O14 S4"
_cell_length_a       8.468905350917357
_cell_length_b       8.5052874710461
_cell_length_c       11.04202129055577
_cell_angle_alpha    68.82500225238903
_cell_angle_beta     90.31882442224051
_cell_angle_gamma    80.64282993623209

_space_group_name_H-M_alt    "P 1"
_space_group_IT_number       1

loop_
  _space_group_symop_operation_xyz
  'x, y, z'

loop_
  _atom_site_type_symbol
  _atom_site_label
  _atom_site_symmetry_multiplicity
  _atom_site_fract_x
  _atom_site_fract_y
  _atom_site_fract_z
  _atom_site_occupancy
  H   H1        1.0  0.4948320382229254  0.42245122141873037  0.6489336851001989  1.0000
  H   H2        1.0  0.5051679615917368  0.5775487784922073  0.3510663143990986  1.0000
  H   H3        1.0  0.7051419893774479  0.4341992407057548  0.6319641067286209  1.0000
  H   H4        1.0  0.29485801044415777  0.5658007592082936  0.3680358936754513  1.0000
  H   H5        1.0  0.554631336206574  0.626793836963785  0.5745276478485885  1.0000
  H   H6        1.0  0.44536866360808813  0.37320616294715275  0.42547235165070896  1.0000
  H   H7        1.0  0.01955165804970836  0.1693375606999511  0.08072420691525535  1.0000
  H   H8        1.0  0.9804483429526055  0.8306624392145594  0.9192757934880068  1.0000
  H   H9        1.0  0.8342473106074194  0.2520868353961237  0.13628468364886828  1.0000
  H   H10       1.0  0.16575268921418623  0.7479131645179247  0.8637153167552039  1.0000
  H   H11       1.0  0.9199696917526909  0.38838891002483616  0.9962812118256005  1.0000
  H   H12       1.0  0.08003030806197128  0.6116110898861016  0.0037187876736970377  1.0000
  H   H13       1.0  0.4238381243300584  0.20527983122258073  0.8829482847198529  1.0000
  H   H14       1.0  0.5761618754846038  0.7947201686883568  0.11705171477944455  1.0000
  H   H15       1.0  0.3807699244538151  0.3530935252317752  0.9657542399227835  1.0000
  H   H16       1.0  0.6192300753608471  0.6469064746791626  0.03424575957651403  1.0000
  H   H17       1.0  0.49630510235317493  0.14727030064156485  0.04857550794469882  1.0000
  H   H18       1.0  0.5036948974684307  0.8527296992724834  0.9514244924593734  1.0000
  H   H19       1.0  0.9971545141560394  0.4687214682970126  0.6723813947387024  1.0000
  H   H20       1.0  0.0028454856586227957  0.531278531613925  0.32761860476059507  1.0000
  H   H21       1.0  0.18468559631595127  0.44083952337873594  0.7588716879451678  1.0000
  H   H22       1.0  0.815314403498711  0.5591604765322017  0.24112831155412984  1.0000
  H   H23       1.0  0.1226892740664018  0.1775843204035185  0.7253500219730102  1.0000
  H   H24       1.0  0.8773107257482604  0.8224156795074191  0.2746499775262872  1.0000
  H   H25       1.0  0.1363139554587405  0.28477880252227006  0.5536359327769208  1.0000
  H   H26       1.0  0.8636860443628652  0.7152211973917781  0.4463640676271514  1.0000
  H   H27       1.0  0.35746367969552995  0.06293470400478919  0.56596429242576  1.0000
  H   H28       1.0  0.6425363201260756  0.9370652959092592  0.4340357079783122  1.0000
  H   H29       1.0  0.36307757749937786  0.9623735296087356  0.738964945879298  1.0000
  H   H30       1.0  0.6369224221100235  0.037626471586295326  0.2610350541652593  1.0000
  H   H31       1.0  0.6338174232307334  0.051651217020546085  0.7513445947560233  1.0000
  H   H32       1.0  0.36618257637866797  0.9483487841744849  0.24865540528853375  1.0000
  H   H33       1.0  0.629175945193962  0.8993559268683349  0.675409153081688  1.0000
  H   H34       1.0  0.37082405580140865  0.10064407304306491  0.32459084641679936  1.0000
  H   H35       1.0  0.8541960026709581  0.9989780035964072  0.5447666289638955  1.0000
  H   H36       1.0  0.14580399715064743  0.0010219963176410374  0.45523337144017667  1.0000
  H   H37       1.0  0.8599219671509485  0.1358805269989852  0.6349431146409562  1.0000
  H   H38       1.0  0.14007803245150952  0.8641194741929351  0.3650568844988263  1.0000
  H   H39       1.0  0.020595042655528303  0.7738072883546184  0.5882030553597032  1.0000
  H   H40       1.0  0.9794049571591339  0.22619271155631915  0.41179694413959445  1.0000
  H   H41       1.0  0.22074501928726464  0.7311158702662625  0.659952233670633  1.0000
  H   H42       1.0  0.779254980534341  0.2688841296477858  0.34004776673343906  1.0000
  C   C1        1.0  0.588818189580863  0.49751814857259247  0.6483393747260313  1.0000
  C   C2        1.0  0.4111818102337992  0.5024818513383452  0.3516606247732661  1.0000
  C   C3        1.0  0.9042003557232723  0.25725129579991535  0.052321904041905086  1.0000
  C   C4        1.0  0.09579964527904168  0.7427487041145951  0.9476780963613569  1.0000
  C   C5        1.0  0.46966120289151725  0.2519152566981985  0.9541822946204674  1.0000
  C   C6        1.0  0.5303387969231449  0.7480847432127391  0.04581770487883009  1.0000
  C   C7        1.0  0.12847968361930612  0.4446191471806219  0.6669968795880309  1.0000
  C   C8        1.0  0.8715203162022994  0.5553808527334264  0.3330031208160414  1.0000
  C   C9        1.0  0.1784112206456055  0.2748024137989601  0.6515421293888651  1.0000
  C   C10       1.0  0.8215887789637959  0.7251975873960708  0.34845787065569206  1.0000
  C   C11       1.0  0.4043166595924838  0.06572261919970065  0.6586382870467624  1.0000
  C   C12       1.0  0.5956833402221783  0.934277380711237  0.34136171245253516  1.0000
  C   C13       1.0  0.5850592935961829  0.03338401099175268  0.6651631883072541  1.0000
  C   C14       1.0  0.41494070740613104  0.9666159889227578  0.3348368120960081  1.0000
  C   C15       1.0  0.8061831687312123  0.12716159171740263  0.5467186014228858  1.0000
  C   C16       1.0  0.19381683109039333  0.8728384081966457  0.45328139898118647  1.0000
  C   C17       1.0  0.14885026769487758  0.7378506281169509  0.5738104964438611  1.0000
  C   C18       1.0  0.851149733300493  0.2621493717944491  0.4261895030546264  1.0000
  N   N1        1.0  0.6176924863908909  0.322139356692514  0.9142754684553825  1.0000
  N   N2        1.0  0.3823075146044797  0.6778606432188858  0.08572453104310486  1.0000
  O   O1        1.0  0.449935100156987  0.6138565985009236  0.8175890778341992  1.0000
  O   O2        1.0  0.5500648996646187  0.38614340141312475  0.18241092256987307  1.0000
  O   O3        1.0  0.7478941271123916  0.5822842414173276  0.8139124866920593  1.0000
  O   O4        1.0  0.2521058727022705  0.4177157584936101  0.18608751280723826  1.0000
  O   O5        1.0  0.7610255372901478  0.019862043916458978  0.024129188199519282  1.0000
  O   O6        1.0  0.23897446252451449  0.9801379559944787  0.9758708112997783  1.0000
  O   O7        1.0  0.8770080047837537  0.21134484238973775  0.8309572828681061  1.0000
  O   O8        1.0  0.1229919962116168  0.7886551575216622  0.1690427166303812  1.0000
  O   O9        1.0  0.3490955583609419  0.22794917934200598  0.6681801677394412  1.0000
  O   O10       1.0  0.6509044414606637  0.7720508205720422  0.33181983266463094  1.0000
  O   O11       1.0  0.6360157281831615  0.14943669747040036  0.5489478305048155  1.0000
  O   O12       1.0  0.36398427163844393  0.8505633024436479  0.45105216989925656  1.0000
  O   O13       1.0  0.17656517690884618  0.5767550659227281  0.5587761849047581  1.0000
  O   O14       1.0  0.8234348229058159  0.4232449339882095  0.4412238145945394  1.0000
  S   S1        1.0  0.6014216856383119  0.5216319097797982  0.799300386855757  1.0000
  S   S2        1.0  0.3985783141832937  0.4783680901342501  0.2006996135483151  1.0000
  S   S3        1.0  0.7957445357611846  0.18751457377149158  0.9493853649610384  1.0000
  S   S4        1.0  0.2042554640604209  0.8124854261425567  0.05061463544303381  1.0000
