data_image0
_chemical_formula_structural       H77C77N3O8
_chemical_formula_sum              "H77 C77 N3 O8"
_cell_length_a       10.606493074882703
_cell_length_b       11.622761508462908
_cell_length_c       13.161293520845508
_cell_angle_alpha    86.45125481892445
_cell_angle_beta     78.99285489715051
_cell_angle_gamma    71.48975393622538

_space_group_name_H-M_alt    "P 1"
_space_group_IT_number       1

loop_
  _space_group_symop_operation_xyz
  'x, y, z'

loop_
  _atom_site_type_symbol
  _atom_site_label
  _atom_site_symmetry_multiplicity
  _atom_site_fract_x
  _atom_site_fract_y
  _atom_site_fract_z
  _atom_site_occupancy
  H   H1        1.0  0.6628351749687137  0.5013588581713104  0.35941117550442214  1.0000
  H   H2        1.0  0.474162871472054  0.5101557656715039  0.5080285125994116  1.0000
  H   H3        1.0  0.6343202060903401  0.33155388512170664  0.27273911062908884  1.0000
  H   H4        1.0  0.3241833869631007  0.4352575587673372  0.46813306813908484  1.0000
  H   H5        1.0  0.325018889889367  0.649887759083481  0.356858223567497  1.0000
  H   H6        1.0  0.47908115039046395  0.5056876892508468  0.22569111316127494  1.0000
  H   H7        1.0  0.6821749828220808  0.7880213990090139  0.3940192726066996  1.0000
  H   H8        1.0  0.6115872793408561  0.9879329008093919  0.4830243865064802  1.0000
  H   H9        1.0  0.3677287541249666  0.09198134302378155  0.550289504189375  1.0000
  H   H10       1.0  0.19772095714885934  0.9930337189357733  0.5332001886844593  1.0000
  H   H11       1.0  0.26679184852607135  0.7941598562698713  0.4495459289784507  1.0000
  H   H12       1.0  0.3591619719473811  0.832795775259564  0.2480824014345718  1.0000
  H   H13       1.0  0.38926488022961764  0.8777000738170505  0.05974890360869219  1.0000
  H   H14       1.0  0.5977525198304662  0.7609574928285648  0.9421402344213724  1.0000
  H   H15       1.0  0.7762995884304382  0.5978625151277766  0.014836389119542643  1.0000
  H   H16       1.0  0.7457250332584926  0.5541163960731054  0.20158868938138713  1.0000
  H   H17       1.0  0.3085779718153667  0.607303144839291  0.17640354535492056  1.0000
  H   H18       1.0  0.09389922084755452  0.735708025317531  0.1316814796452839  1.0000
  H   H19       1.0  0.8756095807349689  0.7070565826553525  0.22026841970514857  1.0000
  H   H20       1.0  0.8781823276261361  0.5447626625309729  0.3528562860219039  1.0000
  H   H21       1.0  0.09669138387761336  0.4130834608616449  0.39663453032466933  1.0000
  H   H22       1.0  0.3986962364368407  0.4081284757881931  0.10605407463660942  1.0000
  H   H23       1.0  0.4814785619986676  0.2305644572073008  0.9907144625706541  1.0000
  H   H24       1.0  0.5322570555387248  0.021960622806398034  0.06401255866021115  1.0000
  H   H25       1.0  0.4985165912503447  0.9938266179899177  0.2562840806194644  1.0000
  H   H26       1.0  0.4130136165298823  0.17339673273726888  0.3719197658946711  1.0000
  H   H27       1.0  0.47243078930029164  0.2657090516800396  0.5690685406914815  1.0000
  H   H28       1.0  0.6060467661427346  0.5090206835756232  0.6191704370558748  1.0000
  H   H29       1.0  0.6122506199881526  0.29304451390612374  0.4310081439698462  1.0000
  H   H30       1.0  0.7598518798988388  0.41047395299565254  0.47538848319616733  1.0000
  H   H31       1.0  0.7181980242889859  0.324107090921735  0.677035193022672  1.0000
  H   H32       1.0  0.739653700778982  0.1381614546638147  0.5861602621991776  1.0000
  H   H33       1.0  0.6402711754201866  0.39335863037897373  0.8281850278285455  1.0000
  H   H34       1.0  0.5299520462250478  0.5444194419882182  0.9658061388897649  1.0000
  H   H35       1.0  0.279756150279417  0.6390367253110707  0.9980402389869063  1.0000
  H   H36       1.0  0.14196767636439944  0.5723097004721032  0.8952092922274033  1.0000
  H   H37       1.0  0.2538482081372304  0.41957539633639546  0.7553004730661419  1.0000
  H   H38       1.0  0.7224914295239091  0.2129589383681137  0.8164005592065161  1.0000
  H   H39       1.0  0.8288044507918505  0.005375425434051184  0.8678077276258983  1.0000
  H   H40       1.0  0.7470582229232255  0.8375201643984908  0.8250195881230203  1.0000
  H   H41       1.0  0.5484592090180314  0.8874386301720261  0.7371875127672839  1.0000
  H   H42       1.0  0.43749853329626953  0.10022905340714658  0.6878874464924029  1.0000
  H   H43       1.0  0.963072199934249  0.4117681572941947  0.532033090159605  1.0000
  H   H44       1.0  0.12358045814366797  0.3966419221321305  0.6496761617812972  1.0000
  H   H45       1.0  0.18776088520320525  0.21311186988807673  0.7622098810761326  1.0000
  H   H46       1.0  0.08888362152951641  0.04739352159916362  0.7531776008841004  1.0000
  H   H47       1.0  0.9411069467134392  0.056802167539480614  0.6275840857642238  1.0000
  H   H48       1.0  0.8028905155547759  0.025085937125943612  0.4491896719739578  1.0000
  H   H49       1.0  0.9418251701336059  0.863436944769224  0.3244531546126423  1.0000
  H   H50       1.0  0.15019142254881385  0.8826123147152496  0.21203736517670663  1.0000
  H   H51       1.0  0.22226309134652517  0.06512379547264914  0.22798741671024148  1.0000
  H   H52       1.0  0.08614138345147275  0.22413419628762402  0.35595779520568654  1.0000
  H   H53       1.0  0.7837347344058603  0.7083269182533178  0.5300240403397076  1.0000
  H   H54       1.0  0.08201392953162491  0.6369900059723598  0.726142866741714  1.0000
  H   H55       1.0  0.9264359342716506  0.5693805528819698  0.8659521084947857  1.0000
  H   H56       1.0  0.7004358174877684  0.5746796079746271  0.8397773249245502  1.0000
  H   H57       1.0  0.019690009158669575  0.7050543583180443  0.45748561598358123  1.0000
  H   H58       1.0  0.1418120452885889  0.6750440056226122  0.539513799780386  1.0000
  H   H59       1.0  0.016707911635016257  0.819524250579933  0.5413285984218489  1.0000
  H   H60       1.0  0.5276847738400043  0.6536469834225133  0.7323310780807023  1.0000
  H   H61       1.0  0.5626101846300585  0.7024959650999539  0.6101586694204445  1.0000
  H   H62       1.0  0.9370465808492225  0.29731447010626927  0.21662783269122304  1.0000
  H   H63       1.0  0.05162008124461381  0.36254564871964123  0.8915754135596641  1.0000
  H   H64       1.0  0.8596378717755416  0.3059085787076293  0.8560990349458023  1.0000
  H   H65       1.0  0.708135474204544  0.2370036841370605  0.9996805899669022  1.0000
  H   H66       1.0  0.2116025232177033  0.3385620047043943  0.0175716829962361  1.0000
  H   H67       1.0  0.152465647859419  0.33012970512671574  0.1524564469556831  1.0000
  H   H68       1.0  0.09867114695978536  0.4686434317302886  0.08631546400936217  1.0000
  H   H69       1.0  0.7884331505595038  0.1697907886642132  0.25336742058697237  1.0000
  H   H70       1.0  0.6769874050434229  0.17325565261911566  0.17767428008910896  1.0000
  H   H71       1.0  0.044695060551214257  0.06032976802872997  0.07011690018890115  1.0000
  H   H72       1.0  0.9974762523896479  0.7819237623531968  0.8926981254460538  1.0000
  H   H73       1.0  0.21020760691297571  0.7732113344789209  0.7720529116169689  1.0000
  H   H74       1.0  0.3429001312953032  0.9090350204500921  0.797996629591644  1.0000
  H   H75       1.0  0.7941586648512763  0.004844430513051628  0.04774944720551885  1.0000
  H   H76       1.0  0.8855719146005291  0.929536488991033  0.14450750389848102  1.0000
  H   H77       1.0  0.845832793196381  0.8445305876105934  0.05374423906264973  1.0000
  C   C1        1.0  0.5265478382276575  0.6584439096989264  0.35403090841063495  1.0000
  C   C2        1.0  0.420249379182286  0.58886422422329  0.37598535070420414  1.0000
  C   C3        1.0  0.46102989540992195  0.4763591371589272  0.30681679687199614  1.0000
  C   C4        1.0  0.3493123813483554  0.4132685850767781  0.3194275001767044  1.0000
  C   C5        1.0  0.4801501990820317  0.7760239497723697  0.4160145936993921  1.0000
  C   C6        1.0  0.5762265251282296  0.8321716679421794  0.4267912650166962  1.0000
  C   C7        1.0  0.5367470585046646  0.9441398454149271  0.4763393919271637  1.0000
  C   C8        1.0  0.4002124782430776  0.0027515364017651855  0.5146257641116921  1.0000
  C   C9        1.0  0.3043551695305382  0.9475350223732744  0.5045104432787705  1.0000
  C   C10       1.0  0.34406836318169565  0.8348794328174529  0.4561850590973089  1.0000
  C   C11       1.0  0.5491331056480624  0.689169158740595  0.23788591210156437  1.0000
  C   C12       1.0  0.44970316661860404  0.7800448617364087  0.19648486078906136  1.0000
  C   C13       1.0  0.46661162266681416  0.8056419572405764  0.09067444503923687  1.0000
  C   C14       1.0  0.5842951885458814  0.7406205634078527  0.024623877450829085  1.0000
  C   C15       1.0  0.684198597926156  0.6502889779884151  0.06519534488663224  1.0000
  C   C16       1.0  0.6668321284351947  0.6247032775444015  0.1711336358890434  1.0000
  C   C17       1.0  0.2180611222785146  0.5001085282997867  0.2906728076345359  1.0000
  C   C18       1.0  0.2153455497062873  0.5917598347181148  0.21592680113598345  1.0000
  C   C19       1.0  0.09312223488803578  0.6657099594807178  0.1907051125572325  1.0000
  C   C20       1.0  0.971144531086888  0.6498115379089358  0.24017929975373067  1.0000
  C   C21       1.0  0.9727251508004205  0.5584537630542648  0.3145064131297922  1.0000
  C   C22       1.0  0.09508708700995537  0.4843414407252275  0.33886899569309537  1.0000
  C   C23       1.0  0.3999782809242594  0.3028899890193726  0.24761723423110074  1.0000
  C   C24       1.0  0.4215483589695775  0.317619810627408  0.13992839878707738  1.0000
  C   C25       1.0  0.46887303858729323  0.21736124738961773  0.0743041377140259  1.0000
  C   C26       1.0  0.49706649075144826  0.10007093975617232  0.11546657549892746  1.0000
  C   C27       1.0  0.47721414472896134  0.08464645010674078  0.22285231776709333  1.0000
  C   C28       1.0  0.4285567300264294  0.18539582818836917  0.28851077744098036  1.0000
  C   C29       1.0  0.5205075332333609  0.2982687224714603  0.6976043518353839  1.0000
  C   C30       1.0  0.6452564008047242  0.32441171283715825  0.6278195980480078  1.0000
  C   C31       1.0  0.7176407149953584  0.2255785792662014  0.5452486203864196  1.0000
  C   C32       1.0  0.8550809530490728  0.2386731172642266  0.4887672545245962  1.0000
  C   C33       1.0  0.45437919444731445  0.39467808425990014  0.7816539200179402  1.0000
  C   C34       1.0  0.5305970235500277  0.4313133755335632  0.8416768363613301  1.0000
  C   C35       1.0  0.46862071745260164  0.5180734168772063  0.9195017063639481  1.0000
  C   C36       1.0  0.3285288430382827  0.5703539086324315  0.9383250104669818  1.0000
  C   C37       1.0  0.25169004058483585  0.5337189580334002  0.8795749691496688  1.0000
  C   C38       1.0  0.31366543791541635  0.4472443783660581  0.8017471149842528  1.0000
  C   C39       1.0  0.5728225341124232  0.17191967231684047  0.7460962277709781  1.0000
  C   C40       1.0  0.6809453970014466  0.1433927556531175  0.7998164387670934  1.0000
  C   C41       1.0  0.7420899704312627  0.02462206133847094  0.8293514682849783  1.0000
  C   C42       1.0  0.6960322327186728  0.9312611660817481  0.8060893573344035  1.0000
  C   C43       1.0  0.585038858249627  0.9595663394668946  0.7563572028177646  1.0000
  C   C44       1.0  0.5230920120448831  0.07881531688156841  0.7275454823237106  1.0000
  C   C45       1.0  0.9432432324154558  0.23489546274428033  0.569627169651474  1.0000
  C   C46       1.0  0.9928901984226647  0.3308655952121025  0.5791541611181344  1.0000
  C   C47       1.0  0.08204190997995753  0.3226827990179  0.6468873543287714  1.0000
  C   C48       1.0  0.1180640873609687  0.22045366045819711  0.7092927200849255  1.0000
  C   C49       1.0  0.06325227590956102  0.12691160564526044  0.7038845274455118  1.0000
  C   C50       1.0  0.9784606915483514  0.13301018242334123  0.633522174431499  1.0000
  C   C51       1.0  0.9339988179429968  0.13687722612101275  0.41108145425412945  1.0000
  C   C52       1.0  0.8951097649134662  0.03423219923437576  0.40170950131958233  1.0000
  C   C53       1.0  0.9728571819045467  0.9432556549370411  0.330325416553452  1.0000
  C   C54       1.0  0.09031743175572664  0.9538642957340981  0.26745450112940244  1.0000
  C   C55       1.0  0.13055980877558454  0.055639625366508606  0.2764895153986534  1.0000
  C   C56       1.0  0.053519133380505124  0.14566310750425926  0.3482747622072703  1.0000
  C   C57       1.0  0.7264617506366766  0.6443319043969112  0.6835707321932236  1.0000
  C   C58       1.0  0.8152979752743741  0.6796294900337644  0.6042080667962823  1.0000
  C   C59       1.0  0.9429593265618321  0.6788387886898793  0.6186932095367484  1.0000
  C   C60       1.0  0.9819760455926286  0.6399650462514763  0.7143046253118486  1.0000
  C   C61       1.0  0.8948907690144495  0.6024924771317931  0.7926125147401059  1.0000
  C   C62       1.0  0.7674946028446474  0.6043504232748308  0.7781522113575672  1.0000
  C   C63       1.0  0.03538384035642182  0.7213044164690333  0.5346383133745901  1.0000
  C   C64       1.0  0.8159902245281839  0.2601073826735078  0.11664321848485686  1.0000
  C   C65       1.0  0.9208553026030114  0.2988624117009241  0.1370913908369059  1.0000
  C   C66       1.0  0.007034930364186182  0.3356619652591062  0.05709247828050591  1.0000
  C   C67       1.0  0.983459056465335  0.3375519319311239  0.9555528614919663  1.0000
  C   C68       1.0  0.875304107140878  0.3043537152067204  0.93571000204505  1.0000
  C   C69       1.0  0.791152561784082  0.2651625370441543  0.015407266163604388  1.0000
  C   C70       1.0  0.1235323745384439  0.36984281089270016  0.07947716421291146  1.0000
  C   C71       1.0  0.20404287914076466  0.9950022018349047  0.9368649186561944  1.0000
  C   C72       1.0  0.07935480319760504  0.9957858512737416  0.006516070516732892  1.0000
  C   C73       1.0  0.00669911951399618  0.920000993906464  0.9914898492534837  1.0000
  C   C74       1.0  0.05536142721350166  0.8403231618846922  0.9060312283670128  1.0000
  C   C75       1.0  0.17608896087087872  0.8356200104147498  0.8373690321847508  1.0000
  C   C76       1.0  0.2504701425061805  0.909403532187943  0.850883217973278  1.0000
  C   C77       1.0  0.8765740348662739  0.9243142841365063  0.06334305282883541  1.0000
  N   N1        1.0  0.5986871204351373  0.6434193420732196  0.6664409053512409  1.0000
  N   N2        1.0  0.734583199651094  0.21941713476859975  0.19995975217919815  1.0000
  N   N3        1.0  0.2701162692042993  0.06785675799038318  0.950436710050431  1.0000
  O   O1        1.0  0.6498819971432422  0.5841087488320315  0.3838297914931017  1.0000
  O   O2        1.0  0.3904356444079414  0.5596917115433608  0.4831689365791877  1.0000
  O   O3        1.0  0.5850132085546931  0.395194477286907  0.3300886664170329  1.0000
  O   O4        1.0  0.3245033101670179  0.3703842055703475  0.422875025690196  1.0000
  O   O5        1.0  0.42180169510231924  0.30187833888039806  0.6368232191599494  1.0000
  O   O6        1.0  0.6086128123959127  0.43874002866439016  0.5757494777448732  1.0000
  O   O7        1.0  0.6300693157056328  0.220138890129849  0.4767789057030284  1.0000
  O   O8        1.0  0.8331083131370934  0.3495446557256677  0.4307111313614795  1.0000
