data_image0
_chemical_formula_structural       H52C88N4O4F12S4I12
_chemical_formula_sum              "H52 C88 N4 O4 F12 S4 I12"
_cell_length_a       6.968587867597662
_cell_length_b       15.647884589658748
_cell_length_c       20.849719572083767
_cell_angle_alpha    90.0
_cell_angle_beta     91.7861377217962
_cell_angle_gamma    90.0

_space_group_name_H-M_alt    "P 1"
_space_group_IT_number       1

loop_
  _space_group_symop_operation_xyz
  'x, y, z'

loop_
  _atom_site_type_symbol
  _atom_site_label
  _atom_site_symmetry_multiplicity
  _atom_site_fract_x
  _atom_site_fract_y
  _atom_site_fract_z
  _atom_site_occupancy
  H   H1        1.0  0.4845700761941496  0.20544366630391336  0.43174800432940463  1.0000
  H   H2        1.0  0.5154299236063471  0.7054436666343494  0.06825199598824724  1.0000
  H   H3        1.0  0.5154299232543227  0.7945563337178949  0.5682519955681034  1.0000
  H   H4        1.0  0.4845700758860296  0.2945563333874588  0.9317480043891166  1.0000
  H   H5        1.0  0.14744474839832333  0.2249757045323897  0.47032835383230753  1.0000
  H   H6        1.0  0.8525552514021734  0.7249757042237618  0.029671646485344316  1.0000
  H   H7        1.0  0.852555251050149  0.7750242954894186  0.5296716460652005  1.0000
  H   H8        1.0  0.14744474809020333  0.2750242957980465  0.9703283538920197  1.0000
  H   H9        1.0  0.0902185597496165  0.33762684724115904  0.5538551922048351  1.0000
  H   H10       1.0  0.9097814408257727  0.8376268469325312  0.9461448077526675  1.0000
  H   H11       1.0  0.9097814411338928  0.6623731527806492  0.44614480769295556  1.0000
  H   H12       1.0  0.09021855862269942  0.1623731530892771  0.053855192144840525  1.0000
  H   H13       1.0  0.359902727972389  0.43081031952747906  0.5904221358727995  1.0000
  H   H14       1.0  0.6400972711679631  0.9308103198579152  0.9095778640844207  1.0000
  H   H15       1.0  0.6400972714760831  0.5691896804943292  0.4095778640247086  1.0000
  H   H16       1.0  0.3599027283244135  0.06918968016389308  0.09042213629294332  1.0000
  H   H17       1.0  0.78315292296526  0.5648220920443757  0.5901954272492664  1.0000
  H   H18       1.0  0.21684707761012945  0.06482209235300353  0.9098045727082362  1.0000
  H   H19       1.0  0.21684707791824945  0.4351779079774326  0.40980457264852416  1.0000
  H   H20       1.0  0.7831529218383428  0.9351779076688047  0.09019542718927188  1.0000
  H   H21       1.0  0.5430185500150195  0.5314531368346039  0.5803896128261239  1.0000
  H   H22       1.0  0.4569814491253326  0.0314531371432318  0.9196103871310962  1.0000
  H   H23       1.0  0.45698144947735714  0.46854686318720434  0.41961038755124014  1.0000
  H   H24       1.0  0.5430185503231396  0.9685468628785765  0.08038961276641185  1.0000
  H   H25       1.0  0.6682474631769307  0.620075338899953  0.6943523594204126  1.0000
  H   H26       1.0  0.3317525373984586  0.12007533920858092  0.8056476405370901  1.0000
  H   H27       1.0  0.33175253627154155  0.37992466112185524  0.30564764047709553  1.0000
  H   H28       1.0  0.6682474634850506  0.8799246608132274  0.19435235936070058  1.0000
  H   H29       1.0  0.6612588512467706  0.673126370510233  0.8064231724679306  1.0000
  H   H30       1.0  0.3387411478935816  0.17312637081886095  0.6935768274892894  1.0000
  H   H31       1.0  0.33874114820170154  0.32687362951157517  0.19357682742957735  1.0000
  H   H32       1.0  0.6612588515548906  0.8268736292029474  0.30642317240821865  1.0000
  H   H33       1.0  0.6694392728436648  0.6431350641894958  0.9230135766402545  1.0000
  H   H34       1.0  0.3305607277317246  0.14313506385905964  0.5769864233172481  1.0000
  H   H35       1.0  0.3305607280398446  0.3568649358323125  0.07698642325753613  1.0000
  H   H36       1.0  0.6694392717167477  0.8568649361627487  0.42301357658025995  1.0000
  H   H37       1.0  0.701361323749765  0.49372987675955804  0.9632319016549735  1.0000
  H   H38       1.0  0.29863867539058725  0.9937298770899942  0.5367680983022467  1.0000
  H   H39       1.0  0.2986386756987072  0.5062701232622503  0.03676809824253465  1.0000
  H   H40       1.0  0.701361324057885  0.006270122931814115  0.4632319015952614  1.0000
  H   H41       1.0  0.7202143538558231  0.3730372349408605  0.886445706207531  1.0000
  H   H42       1.0  0.2797856467195662  0.8730372352712966  0.6135542937499716  1.0000
  H   H43       1.0  0.2797856470276862  0.6269627650809477  0.11355429369025964  1.0000
  H   H44       1.0  0.720214352728906  0.12696276475051166  0.3864457061475365  1.0000
  H   H45       1.0  0.7104312265076563  0.32059206989009387  0.7736251054144545  1.0000
  H   H46       1.0  0.2895687740677331  0.82059207022053  0.7263748945430482  1.0000
  H   H47       1.0  0.2895687743758531  0.6794079301317144  0.22637489448333617  1.0000
  H   H48       1.0  0.7104312268157762  0.17940792980127826  0.2736251053547425  1.0000
  H   H49       1.0  0.7079663562866384  0.34986395180969265  0.6576660377943188  1.0000
  H   H50       1.0  0.2920336442887509  0.8498639521401289  0.8423339621631838  1.0000
  H   H51       1.0  0.2920336445968709  0.6501360482121157  0.3423339621034719  1.0000
  H   H52       1.0  0.7079663551597213  0.15013604788167947  0.1576660377343242  1.0000
  C   C1        1.0  0.817216954326533  0.4343815044809347  0.2646476639966476  1.0000
  C   C2        1.0  0.18278304543005933  0.9343815048113709  0.2353523358411485  1.0000
  C   C3        1.0  0.18278304655697641  0.5656184955408736  0.735352335901143  1.0000
  C   C4        1.0  0.8172169540184129  0.06561849521043742  0.7646476640563595  1.0000
  C   C5        1.0  0.8118199421663597  0.5229713085568243  0.25818767451391395  1.0000
  C   C6        1.0  0.18818005759023249  0.02297130822638813  0.24181232532388217  1.0000
  C   C7        1.0  0.18818005728211246  0.477028691464984  0.7418123253835941  1.0000
  C   C8        1.0  0.8118199418582397  0.9770286917954202  0.7581876745736259  1.0000
  C   C9        1.0  0.8073217131271442  0.5631895442163528  0.19845674139715114  1.0000
  C   C10       1.0  0.19267828662944814  0.06318954388591663  0.30154325844064495  1.0000
  C   C11       1.0  0.19267828632132813  0.43681045580545547  0.8015432585003569  1.0000
  C   C12       1.0  0.8073217142540613  0.9368104561358916  0.6984567414571458  1.0000
  C   C13       1.0  0.8108675667637312  0.5119021727252328  0.14363366116123652  1.0000
  C   C14       1.0  0.18913243299286095  0.011902173033860652  0.35636633867655954  1.0000
  C   C15       1.0  0.18913243268474095  0.4880978272965755  0.8563663387362715  1.0000
  C   C16       1.0  0.8108675664556112  0.9880978269879477  0.6436336612209486  1.0000
  C   C17       1.0  0.8190256432199535  0.42300590741667476  0.14733259895424217  1.0000
  C   C18       1.0  0.18097435653663857  0.9230059071080469  0.3526674008835539  1.0000
  C   C19       1.0  0.18097435622851857  0.5769940926051336  0.8526674009432659  1.0000
  C   C20       1.0  0.8190256429118337  0.07699409291376136  0.6473325990139541  1.0000
  C   C21       1.0  0.8208852205513422  0.3864571824613566  0.208397248694196  1.0000
  C   C22       1.0  0.17911477920525004  0.8864571827917928  0.29160275114360007  1.0000
  C   C23       1.0  0.17911477889713004  0.6135428175604517  0.791602751203312  1.0000
  C   C24       1.0  0.8208852202432223  0.11354281723001555  0.7083972487539081  1.0000
  C   C25       1.0  0.44540013877407303  0.2541266135505618  0.4660902486313113  1.0000
  C   C26       1.0  0.5545998610264237  0.754126613241934  0.033909751686340556  1.0000
  C   C27       1.0  0.5545998621533408  0.7458733864712465  0.5339097517463351  1.0000
  C   C28       1.0  0.4454001384220485  0.2458733861408103  0.9660902482111675  1.0000
  C   C29       1.0  0.26289049898221567  0.26594541237543434  0.48845458392309804  1.0000
  C   C30       1.0  0.7371095007743765  0.7659454120668064  0.011545415914698058  1.0000
  C   C31       1.0  0.7371095004662566  0.734054587646374  0.51154541597441  1.0000
  C   C32       1.0  0.26289049867409564  0.23405458795500178  0.9884545839828099  1.0000
  C   C33       1.0  0.23203258522089765  0.32910352389762276  0.5344349422474212  1.0000
  C   C34       1.0  0.7679674153544916  0.8291035242280589  0.9655650577100816  1.0000
  C   C35       1.0  0.7679674156626117  0.6708964761241855  0.4655650576503695  1.0000
  C   C36       1.0  0.23203258409398056  0.1708964757937494  0.034434942187426563  1.0000
  C   C37       1.0  0.38305987376494394  0.38148974423961957  0.5547749563590062  1.0000
  C   C38       1.0  0.6169401268104452  0.8814897445700558  0.9452250435984965  1.0000
  C   C39       1.0  0.6169401256835283  0.6185102557821888  0.4452250435385018  1.0000
  C   C40       1.0  0.3830598741169685  0.11851025545175253  0.054774956779150064  1.0000
  C   C41       1.0  0.5651086810748023  0.3703217656544829  0.5296973006844821  1.0000
  C   C42       1.0  0.43489131806554987  0.870321765345855  0.970302699272738  1.0000
  C   C43       1.0  0.43489131841757445  0.6296782343673254  0.4703026996928819  1.0000
  C   C44       1.0  0.5651086813829223  0.1296782346759533  0.029697300624770006  1.0000
  C   C45       1.0  0.686167475742913  0.5105551567832869  0.5977197486256256  1.0000
  C   C46       1.0  0.31383252483247626  0.010555156452850729  0.9022802513318772  1.0000
  C   C47       1.0  0.3138325251405963  0.4894448432385214  0.402280251272165  1.0000
  C   C48       1.0  0.6861674746599005  0.9894448435689576  0.09771974904548691  1.0000
  C   C49       1.0  0.6878980172580968  0.48789658923260865  0.6682281080078821  1.0000
  C   C50       1.0  0.31210198188225524  0.9878965889239808  0.831771891949338  1.0000
  C   C51       1.0  0.31210198219037527  0.5121034107891996  0.3317718918896259  1.0000
  C   C52       1.0  0.687898017566217  0.012103411097827527  0.16822810794817014  1.0000
  C   C53       1.0  0.67827523597235  0.5543648024943145  0.7118490744856406  1.0000
  C   C54       1.0  0.3217247631680023  0.05436480280294246  0.7881509254715795  1.0000
  C   C55       1.0  0.32172476347612233  0.4456351975274937  0.28815092541186754  1.0000
  C   C56       1.0  0.6782752362804699  0.9456351972188659  0.21184907442592857  1.0000
  C   C57       1.0  0.6805046289454703  0.5397140227875479  0.7788436966316585  1.0000
  C   C58       1.0  0.319495371629919  0.039714022457111725  0.7211563033258441  1.0000
  C   C59       1.0  0.3194953719819435  0.4602859772342604  0.22115630374598802  1.0000
  C   C60       1.0  0.6805046278185533  0.9602859775646966  0.2788436965716639  1.0000
  C   C61       1.0  0.6716882446726665  0.607440578663374  0.8239651173547418  1.0000
  C   C62       1.0  0.32831175446768573  0.10744057897200178  0.6760348826024783  1.0000
  C   C63       1.0  0.32831175477580576  0.39255942135843436  0.17603488254276634  1.0000
  C   C64       1.0  0.6716882449807865  0.8925594210498065  0.3239651172950298  1.0000
  C   C65       1.0  0.6769806559818261  0.5907034524084243  0.8888826408189321  1.0000
  C   C66       1.0  0.32301934459356313  0.09070345207798805  0.6111173591385706  1.0000
  C   C67       1.0  0.3230193449016831  0.4092965476133841  0.1111173590788586  1.0000
  C   C68       1.0  0.6769806548549091  0.9092965479438203  0.3888826407589375  1.0000
  C   C69       1.0  0.6935713341429244  0.5057994858442783  0.9117419629085931  1.0000
  C   C70       1.0  0.3064286664324649  0.0057994861529061855  0.5882580370489094  1.0000
  C   C71       1.0  0.30642866674058494  0.49420051417752997  0.08825803698919751  1.0000
  C   C72       1.0  0.6935713344510444  0.9942005138689021  0.41174196284888115  1.0000
  C   C73       1.0  0.7025841043099434  0.4385698335566305  0.8691038581331847  1.0000
  C   C74       1.0  0.29741589483040864  0.9385698338870667  0.6308961418240354  1.0000
  C   C75       1.0  0.2974158951824331  0.5614301664651778  0.1308961422441792  1.0000
  C   C76       1.0  0.7025841046180635  0.06143016613474162  0.36910385807347273  1.0000
  C   C77       1.0  0.694083004588142  0.4533868261457263  0.8018676206504105  1.0000
  C   C78       1.0  0.3059169945522102  0.9533868258370984  0.6981323793068096  1.0000
  C   C79       1.0  0.3059169948603302  0.546613173876082  0.19813237924709753  1.0000
  C   C80       1.0  0.6940830049401665  0.046613174184709845  0.3018676210705543  1.0000
  C   C81       1.0  0.7008941074011178  0.38624126126251074  0.7563910862082425  1.0000
  C   C82       1.0  0.29910589173923446  0.8862412615929469  0.7436089137489776  1.0000
  C   C83       1.0  0.29910589204735444  0.6137587381202335  0.2436089136892656  1.0000
  C   C84       1.0  0.7008941077092378  0.11375873842886136  0.25639108614853046  1.0000
  C   C85       1.0  0.6982523859380433  0.4028236554202158  0.6913667419064431  1.0000
  C   C86       1.0  0.301747613202309  0.9028236557506519  0.808633258050777  1.0000
  C   C87       1.0  0.30174761351042895  0.5971763446015924  0.308633257991065  1.0000
  C   C88       1.0  0.6982523862461633  0.09717634427115633  0.19136674184673108  1.0000
  N   N1        1.0  0.5932706871415852  0.30443791892153077  0.4873333992515856  1.0000
  N   N2        1.0  0.40672931261500717  0.8044379186129028  0.01266660058621048  1.0000
  N   N3        1.0  0.4067293123068872  0.6955620811002775  0.5126666006459225  1.0000
  N   N4        1.0  0.5932706868334651  0.19556208140890538  0.9873333993112976  1.0000
  O   O1        1.0  0.7702968454402159  0.29005909993735346  0.46856833182208546  1.0000
  O   O2        1.0  0.2297031557953179  0.7900590996287257  0.031431668495849066  1.0000
  O   O3        1.0  0.2297031554432934  0.7099409000844548  0.5314316680757053  1.0000
  O   O4        1.0  0.7702968451320958  0.20994090039308266  0.9685683318817973  1.0000
  F   F1        1.0  0.810353138033694  0.5718453135776319  0.31183256636965223  1.0000
  F   F2        1.0  0.18964686176680276  0.07184531324719576  0.18816743394799967  1.0000
  F   F3        1.0  0.18964686141477824  0.42815468644417637  0.6881674335278558  1.0000
  F   F4        1.0  0.8103531377255739  0.9281546867746124  0.8118325664293643  1.0000
  F   F5        1.0  0.8063156634565056  0.5497675261284383  0.0851963552339745  1.0000
  F   F6        1.0  0.19368433634399113  0.04976752643706604  0.41480364508367745  1.0000
  F   F7        1.0  0.1936843360358711  0.45023247389337007  0.9148036451433893  1.0000
  F   F8        1.0  0.8063156631483854  0.9502324735847422  0.5851963552936865  1.0000
  F   F9        1.0  0.8249024270508148  0.30006969460287924  0.21301362107986452  1.0000
  F   F10       1.0  0.1750975741408145  0.8000696942942513  0.28698637875821414  1.0000
  F   F11       1.0  0.17509757383269448  0.6999303054189291  0.7869863788179261  1.0000
  F   F12       1.0  0.8249024267426949  0.19993030572755696  0.7130136211395764  1.0000
  S   S1        1.0  0.7723878466182743  0.42997857642984644  0.5435839072114158  1.0000
  S   S2        1.0  0.22761215395711498  0.9299785767602826  0.9564160927460871  1.0000
  S   S3        1.0  0.227612154265235  0.5700214235919618  0.45641609268637495  1.0000
  S   S4        1.0  0.7723878455352617  0.07002142326152568  0.04358390763127696  1.0000
  I   I1        1.0  0.8116728469007336  0.3749093058800442  0.355251288901909  1.0000
  I   I2        1.0  0.18832715285585858  0.8749093062104802  0.14474871093588704  1.0000
  I   I3        1.0  0.18832715254773857  0.6250906935027001  0.644748710995599  1.0000
  I   I4        1.0  0.8116728465926135  0.125090693811328  0.8552512889616211  1.0000
  I   I5        1.0  0.806672032772384  0.6959351590052525  0.1913883738662082  1.0000
  I   I6        1.0  0.19332796841924524  0.19593515867481634  0.3086116259718704  1.0000
  I   I7        1.0  0.19332796811112526  0.3040648410165558  0.8086116260315824  1.0000
  I   I8        1.0  0.8066720324642641  0.804064841346992  0.6913883739259201  1.0000
  I   I9        1.0  0.8249154076290662  0.3449469951719342  0.06606400588274042  1.0000
  I   I10       1.0  0.1750845921714304  0.8449469955023704  0.43393599443491154  1.0000
  I   I11       1.0  0.17508459186331038  0.655053004849874  0.9339359944946235  1.0000
  I   I12       1.0  0.8249154087559835  0.15505300451943788  0.566064005942735  1.0000
