data_image0
_chemical_formula_structural       H76C48O12Br4
_chemical_formula_sum              "H76 C48 O12 Br4"
_cell_length_a       7.734737075358453
_cell_length_b       15.763937108155234
_cell_length_c       10.76787819612699
_cell_angle_alpha    90.0
_cell_angle_beta     100.54940723713965
_cell_angle_gamma    90.0

_space_group_name_H-M_alt    "P 1"
_space_group_IT_number       1

loop_
  _space_group_symop_operation_xyz
  'x, y, z'

loop_
  _atom_site_type_symbol
  _atom_site_label
  _atom_site_symmetry_multiplicity
  _atom_site_fract_x
  _atom_site_fract_y
  _atom_site_fract_z
  _atom_site_occupancy
  H   H1        1.0  0.20329479405919293  0.6955050096164107  0.5568122047573051  1.0000
  H   H2        1.0  0.7967052059618184  0.19550500987507816  0.4431877950898981  1.0000
  H   H3        1.0  0.1333857347662526  0.8044787423973727  0.7006277385213197  1.0000
  H   H4        1.0  0.8666142652547587  0.3044787426560402  0.2993722613258835  1.0000
  H   H5        1.0  0.14572193733220318  0.7326077458165836  0.826445781228171  1.0000
  H   H6        1.0  0.8542780626888081  0.23260774607525103  0.1735542186190322  1.0000
  H   H7        1.0  0.4642059532820802  0.7801082417182466  0.7042966299436741  1.0000
  H   H8        1.0  0.5357940467389312  0.280108241976914  0.295703369903529  1.0000
  H   H9        1.0  0.40114005114951373  0.8334938556182556  0.8328812736140851  1.0000
  H   H10       1.0  0.5988599491266121  0.333493855876923  0.1671187271777151  1.0000
  H   H11       1.0  0.6643152450951958  0.5137452613795501  0.7233879642433864  1.0000
  H   H12       1.0  0.3356847549258154  0.013745261638217534  0.2766120356038168  1.0000
  H   H13       1.0  0.5172625824865664  0.4981839134550463  0.8308329209833528  1.0000
  H   H14       1.0  0.4827374175344448  0.9981839138307382  0.16916707886385038  1.0000
  H   H15       1.0  0.2064968921080212  0.3850247154855771  0.5432655336148555  1.0000
  H   H16       1.0  0.7935031079129902  0.8850247152269097  0.45673446623234776  1.0000
  H   H17       1.0  0.1813257620826434  0.4108779523517126  0.6975303092071494  1.0000
  H   H18       1.0  0.8186742381934825  0.9108779520930451  0.3024696915846507  1.0000
  H   H19       1.0  0.22053169935626535  0.5379884632762573  0.48965785318534716  1.0000
  H   H20       1.0  0.779468300664746  0.03798846353492461  0.5103421466618561  1.0000
  H   H21       1.0  0.03068092575074213  0.5169580380896144  0.5551042584708346  1.0000
  H   H22       1.0  0.9693190742702692  0.016958038348281867  0.4448957413763686  1.0000
  H   H23       1.0  0.3358064687939891  0.2556502631512728  0.6065405203894219  1.0000
  H   H24       1.0  0.6641935312270222  0.7556502628926054  0.3934594794577813  1.0000
  H   H25       1.0  0.5453769321143705  0.14459496789166926  0.6546522858613143  1.0000
  H   H26       1.0  0.45462306816175524  0.6445949682673611  0.3453477149304859  1.0000
  H   H27       1.0  0.6854505437953384  0.20343259732627073  0.5761755222930938  1.0000
  H   H28       1.0  0.31454945622567293  0.7034325977019625  0.4238244775541094  1.0000
  H   H29       1.0  0.6686633469843134  0.20579269428331531  0.8573576823743279  1.0000
  H   H30       1.0  0.33133665303669785  0.7057926946590072  0.14264231747287534  1.0000
  H   H31       1.0  0.7371195934281123  0.7062349775704503  0.801107749136536  1.0000
  H   H32       1.0  0.2628804068480136  0.20623497782911768  0.19889225165526414  1.0000
  H   H33       1.0  0.75656528010397  0.7689583139562873  0.9392792129406301  1.0000
  H   H34       1.0  0.24343472017215578  0.2689583142149547  0.060720787851170056  1.0000
  H   H35       1.0  0.7516440533014719  0.6567620727593458  0.9539352985604823  1.0000
  H   H36       1.0  0.24835594671953942  0.1567620730180133  0.04606470128672083  1.0000
  H   H37       1.0  0.24253636951105748  0.4993505243006634  0.842852898796807  1.0000
  H   H38       1.0  0.7574636292198385  0.999350524041996  0.15714710106088625  1.0000
  H   H39       1.0  0.20012660398557877  0.6053177067715839  0.8784604305802494  1.0000
  H   H40       1.0  0.7998733962905471  0.10531770703025131  0.12153957021155086  1.0000
  H   H41       1.0  0.03286027654584874  0.5432234524438623  0.7844916026533431  1.0000
  H   H42       1.0  0.9671397234751626  0.04322345206817037  0.21550839719386022  1.0000
  H   H43       1.0  0.45539435476279094  0.2651399470401161  0.8868985905347914  1.0000
  H   H44       1.0  0.5446056452582204  0.7651399467814486  0.11310140931241194  1.0000
  H   H45       1.0  0.4230328947590665  0.3750026988462017  0.9061147716076694  1.0000
  H   H46       1.0  0.5769671052619447  0.8750026985875342  0.09388522823953373  1.0000
  H   H47       1.0  0.2683704904328212  0.3136964469010557  0.7992650985611508  1.0000
  H   H48       1.0  0.7316295095881901  0.8136964466423883  0.20073490128605237  1.0000
  H   H49       1.0  0.8359484499441677  0.43382439063792383  0.6875059409540065  1.0000
  H   H50       1.0  0.16405155007684358  0.9338243910136158  0.31249405889319665  1.0000
  H   H51       1.0  0.9715229701513378  0.3443277471077912  0.731073793517699  1.0000
  H   H52       1.0  0.028477029869673473  0.8443277468491238  0.2689262063295042  1.0000
  H   H53       1.0  0.8030615431322707  0.34037225746252087  0.5953941100135828  1.0000
  H   H54       1.0  0.19693845688874043  0.8403722572038534  0.40460588983362045  1.0000
  H   H55       1.0  0.7823511750630673  0.4336681193978714  0.9173042174987583  1.0000
  H   H56       1.0  0.21764882521305845  0.9336681197735633  0.08269578329304182  1.0000
  H   H57       1.0  0.7155469082894143  0.3392632071104388  0.983845117304149  1.0000
  H   H58       1.0  0.284453091731597  0.8392632068517712  0.01615488254305406  1.0000
  H   H59       1.0  0.9258376458463851  0.34520190499775577  0.9413379358089726  1.0000
  H   H60       1.0  0.07416235417462633  0.8452019047390883  0.0586620640382307  1.0000
  H   H61       1.0  0.8565360903716308  0.5409375660087179  0.29968581346191414  1.0000
  H   H62       1.0  0.14346390990449492  0.04093756626738536  0.700314187329886  1.0000
  H   H63       1.0  0.6946312616618961  0.5555551255954527  0.3983572382335024  1.0000
  H   H64       1.0  0.30536873835911504  0.05555512521976093  0.6016427616137009  1.0000
  H   H65       1.0  0.7771751649898851  0.4533899051336927  0.37858957300460744  1.0000
  H   H66       1.0  0.22282483503112602  0.9533899048750253  0.6214104268425957  1.0000
  H   H67       1.0  0.2410571858846097  0.5242234762358214  0.10183160058965908  1.0000
  H   H68       1.0  0.7589428141364016  0.024223476494488923  0.8981683992575442  1.0000
  H   H69       1.0  0.33723543569171927  0.42271898601730834  0.08960606575390953  1.0000
  H   H70       1.0  0.6627645643292921  0.9227189857586409  0.9103939340932937  1.0000
  H   H71       1.0  0.2067865027203994  0.37062502913548584  0.2743729205798747  1.0000
  H   H72       1.0  0.7932134973006117  0.8706250288768184  0.7256270792673284  1.0000
  H   H73       1.0  0.1175325084405575  0.47341955494983246  0.29009726669476077  1.0000
  H   H74       1.0  0.8824674915804538  0.973419554691165  0.7099027331524423  1.0000
  H   H75       1.0  0.0368049030376396  0.4116631223200447  0.1541439355848564  1.0000
  H   H76       1.0  0.9631950969833716  0.9116631220613773  0.8458560642623468  1.0000
  C   C1        1.0  0.1614841434239914  0.6765842217476431  0.6444493389501249  1.0000
  C   C2        1.0  0.83851585659702  0.1765842220063105  0.3555506608970783  1.0000
  C   C3        1.0  0.20282095983569196  0.7477608270780169  0.7428275538320461  1.0000
  C   C4        1.0  0.7971790401853194  0.24776082733668434  0.25717244601515715  1.0000
  C   C5        1.0  0.39748405030626893  0.7713100164368066  0.7848365944004569  1.0000
  C   C6        1.0  0.6025159497147425  0.2713100166954741  0.21516340544674625  1.0000
  C   C7        1.0  0.5023604776613011  0.713968014004409  0.8836893101625881  1.0000
  C   C8        1.0  0.49763952235971026  0.2139680136287172  0.11631068968461515  1.0000
  C   C9        1.0  0.42930095210832403  0.5850707419549784  0.6800393026834547  1.0000
  C   C10       1.0  0.5706990479126873  0.08507074157928658  0.31996069716374853  1.0000
  C   C11       1.0  0.5260261862175857  0.5058542390323697  0.7305787572985262  1.0000
  C   C12       1.0  0.47397381380342574  0.005854238656677798  0.26942124254867705  1.0000
  C   C13       1.0  0.4479845017890098  0.4254743129195915  0.6595250981879517  1.0000
  C   C14       1.0  0.5520154982320015  0.9254743132952833  0.3404749016592515  1.0000
  C   C15       1.0  0.24539122018179713  0.4308969569845552  0.6200874138140686  1.0000
  C   C16       1.0  0.7546087798392141  0.9308969567258878  0.37991258603313455  1.0000
  C   C17       1.0  0.17512635616058175  0.5187224399524974  0.5766181282828942  1.0000
  C   C18       1.0  0.8248736438604296  0.018722440211164895  0.42338187156430895  1.0000
  C   C19       1.0  0.23159785378699557  0.5869912551993721  0.682347061663013  1.0000
  C   C20       1.0  0.7684021449439005  0.08699125482368017  0.31765293819468043  1.0000
  C   C21       1.0  0.5112363723268815  0.34260652608198766  0.7313795717583358  1.0000
  C   C22       1.0  0.48876362769412984  0.8426065258233202  0.2686204280888675  1.0000
  C   C23       1.0  0.4721583079390101  0.2788835593441717  0.6212147716965507  1.0000
  C   C24       1.0  0.5278416907918858  0.7788835590855042  0.37878522816114263  1.0000
  C   C25       1.0  0.6074458068558586  0.2067743202498383  0.6509294320451203  1.0000
  C   C26       1.0  0.3925541934202672  0.7067743206255301  0.34907056874667974  1.0000
  C   C27       1.0  0.7193962896352194  0.23197894947881753  0.7770897054000433  1.0000
  C   C28       1.0  0.28060371038579196  0.7319789498545094  0.22291029444715998  1.0000
  C   C29       1.0  0.7178617844435217  0.33023771753738057  0.7803588276611239  1.0000
  C   C30       1.0  0.28213821557748964  0.8302377172787131  0.21964117218607923  1.0000
  C   C31       1.0  0.6985129129073808  0.710330613042543  0.8939787133537448  1.0000
  C   C32       1.0  0.3014870871136305  0.21033061266685113  0.10602128649345834  1.0000
  C   C33       1.0  0.1744004189045784  0.5570800904462427  0.8045490811925546  1.0000
  C   C34       1.0  0.8255995811164328  0.057080090704910165  0.19545091865464853  1.0000
  C   C35       1.0  0.4084807188638591  0.3232189049627757  0.8364735765954803  1.0000
  C   C36       1.0  0.5915192811571522  0.8232189053384676  0.163526423251723  1.0000
  C   C37       1.0  0.8368993140273756  0.36450802997858645  0.6921124794526863  1.0000
  C   C38       1.0  0.16310068624875018  0.8645080303542784  0.30788752133911385  1.0000
  C   C39       1.0  0.7873225668419215  0.3642136028968139  0.9131090811401803  1.0000
  C   C40       1.0  0.21267743343420437  0.8642136032725058  0.08689091965161998  1.0000
  C   C41       1.0  0.7407812752942142  0.513908957795128  0.3298518765418742  1.0000
  C   C42       1.0  0.2592187247267972  0.013908957419436112  0.6701481233053289  1.0000
  C   C43       1.0  0.5997068395642926  0.49654207297938174  0.21698277993205048  1.0000
  C   C44       1.0  0.40029316045671864  0.9965420733550736  0.7830172199151527  1.0000
  C   C45       1.0  0.2909686663448733  0.4671044675882812  0.15515032079658073  1.0000
  C   C46       1.0  0.709031333676138  0.9671044673296137  0.8448496790506226  1.0000
  C   C47       1.0  0.15555154618375103  0.4280514038912995  0.22266021369456065  1.0000
  C   C48       1.0  0.8444484538372603  0.9280514042669914  0.7773397861526425  1.0000
  O   O1        1.0  0.43005739472172955  0.6750999408957552  0.95965334738983  1.0000
  O   O2        1.0  0.5699426052992818  0.1750999405200633  0.04034665245737323  1.0000
  O   O3        1.0  0.5012468917616212  0.639336708263449  0.6251134638075425  1.0000
  O   O4        1.0  0.49875310825939007  0.13933670852211635  0.3748865360396607  1.0000
  O   O5        1.0  0.5208932867433216  0.4184830575470371  0.5465317218799994  1.0000
  O   O6        1.0  0.47910671353280415  0.918483057922729  0.45346827891180086  1.0000
  O   O7        1.0  0.4910690044505771  0.32642710350182197  0.5085957093640717  1.0000
  O   O8        1.0  0.5089309955704341  0.8264271032431545  0.49140429048313145  1.0000
  O   O9        1.0  0.6245669730870264  0.48470320628513114  0.10906301689961849  1.0000
  O   O10       1.0  0.375433026933985  0.984703206660823  0.8909369829475848  1.0000
  O   O11       1.0  0.4401352070837685  0.4919098057038277  0.2511384655045633  1.0000
  O   O12       1.0  0.5598647929372427  0.9919098060795195  0.7488615343426399  1.0000
  Br  Br1       1.0  0.9001621149148371  0.6738446428148105  0.5960194557226883  1.0000
  Br  Br2       1.0  0.09983788536128872  0.17384464307347788  0.4039805450691118  1.0000
  Br  Br3       1.0  0.9565995630914577  0.17943429681260725  0.8025881638133711  1.0000
  Br  Br4       1.0  0.04340043692955356  0.6794342971882991  0.19741183603383206  1.0000
