data_image0
_chemical_formula_structural       H64C108N16S40
_chemical_formula_sum              "H64 C108 N16 S40"
_cell_length_a       19.0908056378164
_cell_length_b       5.915686820432465
_cell_length_c       26.938974773799035
_cell_angle_alpha    90.0
_cell_angle_beta     91.52854114333292
_cell_angle_gamma    90.0

_space_group_name_H-M_alt    "P 1"
_space_group_IT_number       1

loop_
  _space_group_symop_operation_xyz
  'x, y, z'

loop_
  _atom_site_type_symbol
  _atom_site_label
  _atom_site_symmetry_multiplicity
  _atom_site_fract_x
  _atom_site_fract_y
  _atom_site_fract_z
  _atom_site_occupancy
  H   H1        1.0  0.2434833942011784  0.16642897264260945  0.3492870711259657  1.0000
  H   H2        1.0  0.7565166059235535  0.16642897264260945  0.15071292898930444  1.0000
  H   H3        1.0  0.7434833939889679  0.666428972606057  0.3492870710140102  1.0000
  H   H4        1.0  0.2565166061312869  0.666428972606057  0.15071292872997952  1.0000
  H   H5        1.0  0.7565166059442496  0.8335710272842857  0.6507129289504718  1.0000
  H   H6        1.0  0.2434833942218745  0.8335710272842857  0.849287071087133  1.0000
  H   H7        1.0  0.25651660615198296  0.33357102732083815  0.6507129286911468  1.0000
  H   H8        1.0  0.743483394009664  0.33357102732083815  0.8492870709751774  1.0000
  H   H9        1.0  0.38087334663307193  0.0755947455594527  0.3921277785751175  1.0000
  H   H10       1.0  0.61912665349166  0.0755947455594527  0.10787222154015265  1.0000
  H   H11       1.0  0.8808733464208613  0.5755947455229002  0.392127778463162  1.0000
  H   H12       1.0  0.11912665369939335  0.5755947455229002  0.1078722212808277  1.0000
  H   H13       1.0  0.6191266535123561  0.9244052543674424  0.60787222150132  1.0000
  H   H14       1.0  0.38087334665376804  0.9244052543674424  0.8921277785362848  1.0000
  H   H15       1.0  0.1191266537245667  0.42440525440399485  0.6078722216132754  1.0000
  H   H16       1.0  0.8808733464415575  0.42440525440399485  0.8921277784243293  1.0000
  H   H17       1.0  0.5703260291923367  0.9518963614757986  0.3127201047188609  1.0000
  H   H18       1.0  0.4296739704084156  0.9518963614757986  0.1872798953896758  1.0000
  H   H19       1.0  0.07032602940006993  0.45189636151235113  0.312720104459536  1.0000
  H   H20       1.0  0.9296739707201849  0.45189636151235113  0.18727989528445363  1.0000
  H   H21       1.0  0.4296739704291117  0.04810363845109651  0.6872798953508431  1.0000
  H   H22       1.0  0.5703260292130328  0.04810363845109651  0.8127201046800283  1.0000
  H   H23       1.0  0.9296739707453581  0.5481036384145441  0.6872798956169014  1.0000
  H   H24       1.0  0.07032602942076605  0.5481036384145441  0.8127201044207033  1.0000
  H   H25       1.0  0.21914636658425327  0.40660584020304125  0.2746276271422215  1.0000
  H   H26       1.0  0.7808536335404787  0.40660584020304125  0.22537237297304868  1.0000
  H   H27       1.0  0.7191463663720429  0.9066058401664888  0.27462762703026594  1.0000
  H   H28       1.0  0.28085363374821193  0.9066058401664888  0.2253723727137237  1.0000
  H   H29       1.0  0.7808536335611748  0.5933941597238539  0.7253723729342161  1.0000
  H   H30       1.0  0.21914636660494943  0.5933941597238539  0.7746276271033887  1.0000
  H   H31       1.0  0.2808536337689081  0.09339415976040637  0.7253723726748911  1.0000
  H   H32       1.0  0.7191463663972161  0.09339415976040637  0.7746276273627138  1.0000
  H   H33       1.0  0.14457691602633355  0.25137328008369614  0.2045495078552582  1.0000
  H   H34       1.0  0.8554230840983986  0.25137328008369614  0.29545049226001197  1.0000
  H   H35       1.0  0.644576915814123  0.7513732800471437  0.20454950774330266  1.0000
  H   H36       1.0  0.35542308378215204  0.7513732800471437  0.2954504919939536  1.0000
  H   H37       1.0  0.8554230841190945  0.7486267198431991  0.7954504922211794  1.0000
  H   H38       1.0  0.14457691604702963  0.7486267198431991  0.7045495078164254  1.0000
  H   H39       1.0  0.35542308380284815  0.24862671987975146  0.795450491955121  1.0000
  H   H40       1.0  0.6445769158348191  0.24862671987975146  0.70454950770447  1.0000
  H   H41       1.0  0.5519284153398383  0.5356182732757249  0.32789615028906977  1.0000
  H   H42       1.0  0.4480715847848937  0.5356182732757249  0.17210384982620033  1.0000
  H   H43       1.0  0.05192841502359191  0.03561827331227726  0.3278961500230114  1.0000
  H   H44       1.0  0.9480715850966629  0.03561827331227726  0.17210384972097822  1.0000
  H   H45       1.0  0.4480715848055898  0.4643817266511703  0.6721038497873677  1.0000
  H   H46       1.0  0.5519284153605344  0.4643817266511703  0.8278961502502371  1.0000
  H   H47       1.0  0.9480715845933791  0.964381726614618  0.6721038496754121  1.0000
  H   H48       1.0  0.05192841504428801  0.964381726614618  0.8278961499841788  1.0000
  H   H49       1.0  0.48191371115665826  0.2240036246379801  0.3478104875204829  1.0000
  H   H50       1.0  0.5180862884396167  0.2240036246379801  0.15218951221677343  1.0000
  H   H51       1.0  0.9819137114729048  0.7240036262918484  0.34781048778654117  1.0000
  H   H52       1.0  0.018086288651827227  0.7240036262918484  0.15218951232872893  1.0000
  H   H53       1.0  0.5180862884603128  0.7759963752889151  0.6521895121779406  1.0000
  H   H54       1.0  0.4819137111773545  0.7759963752889151  0.84781048748165  1.0000
  H   H55       1.0  0.01808628867252333  0.27599637532546745  0.6521895122898964  1.0000
  H   H56       1.0  0.9819137114936007  0.27599637532546745  0.8478104877477085  1.0000
  H   H57       1.0  0.09843529069463892  0.8562137573790151  0.2117060867890128  1.0000
  H   H58       1.0  0.901564709425616  0.8562137573790151  0.2882939129549769  1.0000
  H   H59       1.0  0.5984352904869057  0.35621375741556754  0.2117060870483377  1.0000
  H   H60       1.0  0.40156470963782637  0.35621375741556754  0.2882939130669324  1.0000
  H   H61       1.0  0.9015647094507891  0.14378624254788008  0.7882939132874246  1.0000
  H   H62       1.0  0.09843529071533504  0.14378624254788008  0.7117060867501801  1.0000
  H   H63       1.0  0.4015647096585224  0.6437862425113277  0.7882939130280997  1.0000
  H   H64       1.0  0.5984352905076017  0.6437862425113277  0.711706087009505  1.0000
  C   C1        1.0  0.2949442972293766  0.8116805259898758  0.4352717939141548  1.0000
  C   C2        1.0  0.705055702890878  0.8116805259898758  0.06472820582983486  1.0000
  C   C3        1.0  0.7949442970216434  0.3116805260264283  0.4352717941734798  1.0000
  C   C4        1.0  0.2050557031030886  0.3116805260264283  0.06472820594179038  1.0000
  C   C5        1.0  0.7050557029115742  0.18831947393701925  0.5647282057910021  1.0000
  C   C6        1.0  0.29494429725455  0.18831947393701925  0.9352717942466026  1.0000
  C   C7        1.0  0.2050557031237847  0.6883194739004669  0.5647282059029577  1.0000
  C   C8        1.0  0.7949442970423395  0.6883194739004669  0.9352717941346471  1.0000
  C   C9        1.0  0.414995083748393  0.7259668624050054  0.38456923459804915  1.0000
  C   C10       1.0  0.585004916376339  0.7259668624050054  0.11543076551722102  1.0000
  C   C11       1.0  0.9149950835361824  0.2259668624415579  0.3845692344860936  1.0000
  C   C12       1.0  0.0850049165840723  0.2259668624415579  0.11543076525789608  1.0000
  C   C13       1.0  0.5850049163970351  0.2740331375218897  0.6154307654783883  1.0000
  C   C14       1.0  0.41499508376908906  0.2740331375218897  0.8845692345592164  1.0000
  C   C15       1.0  0.08500491660924564  0.7740331374853373  0.6154307655903438  1.0000
  C   C16       1.0  0.9149950835568785  0.7740331374853373  0.884569234447261  1.0000
  C   C17       1.0  0.22949851309237504  0.8586115634885283  0.41633682393539717  1.0000
  C   C18       1.0  0.7705014865083772  0.8586115634885283  0.08366317617313952  1.0000
  C   C19       1.0  0.7294985134041442  0.3586115635250807  0.41633682383017506  1.0000
  C   C20       1.0  0.27050148672058777  0.3586115635250807  0.08366317628509504  1.0000
  C   C21       1.0  0.7705014865290734  0.14138843643836682  0.5836631761343068  1.0000
  C   C22       1.0  0.22949851311307115  0.14138843643836682  0.9163368238965647  1.0000
  C   C23       1.0  0.2705014867412839  0.6413884364018144  0.5836631762462624  1.0000
  C   C24       1.0  0.7294985134248403  0.6413884364018144  0.9163368237913423  1.0000
  C   C25       1.0  0.251655451881117  0.15677874575723375  0.4853223128302202  1.0000
  C   C26       1.0  0.7483445482391379  0.15677874575723375  0.014677686913769517  1.0000
  C   C27       1.0  0.7516554516733837  0.6567787457206813  0.48532231308954515  1.0000
  C   C28       1.0  0.2483445479273686  0.6567787457206813  0.014677687018991635  1.0000
  C   C29       1.0  0.7483445482598339  0.8432212541696614  0.5146776868749369  1.0000
  C   C30       1.0  0.2516554519062903  0.8432212541696614  0.9853223131626679  1.0000
  C   C31       1.0  0.2483445479480647  0.3432212542062138  0.5146776869801589  1.0000
  C   C32       1.0  0.7516554516940798  0.3432212542062138  0.9853223130507125  1.0000
  C   C33       1.0  0.18010445765386632  0.8885353416352321  0.3196025466394907  1.0000
  C   C34       1.0  0.8198955424663884  0.8885353416352321  0.18039745310449895  1.0000
  C   C35       1.0  0.6801044579701128  0.38853534167178444  0.3196025469055491  1.0000
  C   C36       1.0  0.3198955421546193  0.38853534167178444  0.18039745320972106  1.0000
  C   C37       1.0  0.8198955424870845  0.11146465829166315  0.6803974530656662  1.0000
  C   C38       1.0  0.18010445767456243  0.11146465829166315  0.819602546600658  1.0000
  C   C39       1.0  0.31989554217531535  0.6114646582551106  0.6803974531708884  1.0000
  C   C40       1.0  0.680104457466829  0.6114646582551106  0.819602546859983  1.0000
  C   C41       1.0  0.21112072586230402  0.1031878391350296  0.3184338198756399  1.0000
  C   C42       1.0  0.7888792742624279  0.1031878391350296  0.18156618023963028  1.0000
  C   C43       1.0  0.7111207256500934  0.6031878390984772  0.3184338197636844  1.0000
  C   C44       1.0  0.2888792744746385  0.6031878390984772  0.1815661803515858  1.0000
  C   C45       1.0  0.7888792742831241  0.8968121607918657  0.6815661802007975  1.0000
  C   C46       1.0  0.21112072588300013  0.8968121607918657  0.8184338198368072  1.0000
  C   C47       1.0  0.28887927449533457  0.396812160828418  0.681566180312753  1.0000
  C   C48       1.0  0.7111207256707895  0.396812160828418  0.8184338197248517  1.0000
  C   C49       1.0  0.41971716127629816  0.959845778243024  0.37770176987594484  1.0000
  C   C50       1.0  0.5802828388484338  0.959845778243024  0.12229823023932535  1.0000
  C   C51       1.0  0.9197171610640877  0.45984577827957646  0.3777017697639893  1.0000
  C   C52       1.0  0.0802828385366646  0.45984577827957646  0.12229823034454745  1.0000
  C   C53       1.0  0.5802828388691299  0.04015422168387114  0.6222982302004926  1.0000
  C   C54       1.0  0.4197171612969944  0.04015422168387114  0.8777017698371121  1.0000
  C   C55       1.0  0.08028283855736071  0.5401542216473187  0.6222982303057149  1.0000
  C   C56       1.0  0.9197171610847836  0.5401542216473187  0.8777017697251567  1.0000
  C   C57       1.0  0.5258279556332848  0.8912304217643783  0.3333951482214497  1.0000
  C   C58       1.0  0.4741720444914472  0.8912304217643783  0.16660485189382043  1.0000
  C   C59       1.0  0.02582795531703842  0.3912304218009307  0.3333951479553914  1.0000
  C   C60       1.0  0.9741720448032163  0.3912304218009307  0.16660485178859832  1.0000
  C   C61       1.0  0.4741720445121432  0.10876957816251688  0.6666048518549877  1.0000
  C   C62       1.0  0.525827955653981  0.10876957816251688  0.833395148182617  1.0000
  C   C63       1.0  0.9741720448239124  0.6087695781259644  0.6666048517497657  1.0000
  C   C64       1.0  0.02582795533773452  0.6087695781259644  0.8333951479165587  1.0000
  C   C65       1.0  0.19773855665231813  0.2363646559467089  0.27660248100909557  1.0000
  C   C66       1.0  0.8022614429484342  0.2363646559467089  0.22339751909944122  1.0000
  C   C67       1.0  0.6977385569640874  0.7363646559101565  0.2766024809038734  1.0000
  C   C68       1.0  0.3022614431561675  0.7363646559101565  0.22339751884011624  1.0000
  C   C69       1.0  0.8022614429691302  0.7636353439801863  0.7233975190606085  1.0000
  C   C70       1.0  0.19773855667301424  0.7636353439801863  0.7766024809702627  1.0000
  C   C71       1.0  0.30226144318134074  0.26363534401673866  0.7233975191725641  1.0000
  C   C72       1.0  0.6977385569847835  0.26363534401673866  0.7766024808650407  1.0000
  C   C73       1.0  0.1562488363375622  0.15051762830387738  0.23752045482906295  1.0000
  C   C74       1.0  0.8437511637871699  0.15051762830387738  0.2624795452862072  1.0000
  C   C75       1.0  0.6562488361253517  0.650517628267325  0.23752045471710742  1.0000
  C   C76       1.0  0.3437511634709233  0.650517628267325  0.2624795450201488  1.0000
  C   C77       1.0  0.843751163807866  0.8494823716230179  0.7624795452473746  1.0000
  C   C78       1.0  0.15624883635825831  0.8494823716230179  0.7375204547902302  1.0000
  C   C79       1.0  0.34375116349609675  0.3494823716595702  0.7624795453525967  1.0000
  C   C80       1.0  0.6562488361460479  0.3494823716595702  0.7375204546782748  1.0000
  C   C81       1.0  0.5156405920348531  0.6615663707014658  0.34190213874143205  1.0000
  C   C82       1.0  0.48435940808540157  0.6615663707014658  0.15809786100255765  1.0000
  C   C83       1.0  0.015640591723083987  0.16156637073801824  0.34190213884665416  1.0000
  C   C84       1.0  0.9843594084016479  0.16156637073801824  0.15809786126861597  1.0000
  C   C85       1.0  0.48435940811057493  0.3384336292254293  0.6580978613350055  1.0000
  C   C86       1.0  0.5156405920555494  0.3384336292254293  0.8419021387025993  1.0000
  C   C87       1.0  0.9843594078983645  0.8384336291888769  0.6580978612230499  1.0000
  C   C88       1.0  0.015640591743780092  0.8384336291888769  0.8419021388078214  1.0000
  C   C89       1.0  0.4767733395465477  0.04168583758495388  0.35198819493084793  1.0000
  C   C90       1.0  0.5232266605781842  0.04168583758495388  0.14801180518442222  1.0000
  C   C91       1.0  0.9767733393343371  0.5416858375484015  0.3519881948188924  1.0000
  C   C92       1.0  0.023226660790394826  0.5416858375484015  0.14801180529637775  1.0000
  C   C93       1.0  0.5232266605988805  0.9583141623419412  0.6480118051455894  1.0000
  C   C94       1.0  0.4767733395672437  0.9583141623419412  0.8519881948920153  1.0000
  C   C95       1.0  0.023226660811090937  0.4583141623784937  0.6480118052575452  1.0000
  C   C96       1.0  0.9767733393550334  0.4583141623784937  0.8519881947800597  1.0000
  C   C97       1.0  0.1300681390905078  0.931446708938047  0.24173227603696937  1.0000
  C   C98       1.0  0.8699318610342242  0.931446708938047  0.2582677240783008  1.0000
  C   C99       1.0  0.6300681388782974  0.4314467089745996  0.24173227592501387  1.0000
  C   C100      1.0  0.36993186124643473  0.4314467089745996  0.2582677241902563  1.0000
  C   C101      1.0  0.8699318610549203  0.06855329098884803  0.7582677240394682  1.0000
  C   C102      1.0  0.1300681391112039  0.06855329098884803  0.7417322759981366  1.0000
  C   C103      1.0  0.3699318612671308  0.5685532909522956  0.7582677241514236  1.0000
  C   C104      1.0  0.6300681388989934  0.5685532909522956  0.7417322758861813  1.0000
  C   C105      1.0  0.4999999998084856  0.49999999996344763  0.49999999984921184  1.0000
  C   C106      1.0  0.4999999997877895  0.49999999996344763  0.9999999998880444  1.0000
  C   C107      1.0  2.0696104408418263e-11  0.0  0.49999999996116734  1.0000
  C   C108      1.0  0.0  0.0  0.0  1.0000
  N   N1        1.0  0.14099844842303183  0.8019580217826983  0.28217096573251244  1.0000
  N   N2        1.0  0.8590015511777205  0.8019580217826983  0.2178290343760243  1.0000
  N   N3        1.0  0.640998448734801  0.30195802181925063  0.2821709656272903  1.0000
  N   N4        1.0  0.3590015513854537  0.30195802181925063  0.21782903411669938  1.0000
  N   N5        1.0  0.8590015511984164  0.1980419781441969  0.7178290343371916  1.0000
  N   N6        1.0  0.14099844844372794  0.1980419781441969  0.7821709656936797  1.0000
  N   N7        1.0  0.35900155140614987  0.6980419781076445  0.7178290340778667  1.0000
  N   N8        1.0  0.6409984487554972  0.6980419781076445  0.7821709655884577  1.0000
  N   N9        1.0  0.4615466105758632  0.5792708258598256  0.3671056961828259  1.0000
  N   N10       1.0  0.5384533895488688  0.5792708258598256  0.13289430393244422  1.0000
  N   N11       1.0  0.9615466103636527  0.07927082589637802  0.3671056960708704  1.0000
  N   N12       1.0  0.03845338923709963  0.07927082589637802  0.13289430403766633  1.0000
  N   N13       1.0  0.5384533895695649  0.4207291740670696  0.6328943038936116  1.0000
  N   N14       1.0  0.4615466105965593  0.4207291740670696  0.8671056961439934  1.0000
  N   N15       1.0  0.038453389257795734  0.9207291740305171  0.6328943039988336  1.0000
  N   N16       1.0  0.9615466103843489  0.9207291740305171  0.8671056960320377  1.0000
  S   S1        1.0  0.32480312398105177  0.9756522066153029  0.48567279044460204  1.0000
  S   S2        1.0  0.675196876139203  0.9756522066153029  0.014327209299387666  1.0000
  S   S3        1.0  0.8248031237733185  0.47565220665185537  0.48567279070392694  1.0000
  S   S4        1.0  0.17519687582743385  0.47565220665185537  0.014327209404609784  1.0000
  S   S5        1.0  0.6751968761598991  0.02434779331159225  0.514327209260555  1.0000
  S   S6        1.0  0.3248031240062251  0.02434779331159225  0.9856727907770498  1.0000
  S   S7        1.0  0.17519687584812993  0.5243477932750399  0.5143272093657771  1.0000
  S   S8        1.0  0.8248031237940145  0.5243477932750399  0.9856727906650943  1.0000
  S   S9        1.0  0.3463656404065308  0.5867583774061669  0.41579033394651893  1.0000
  S   S10       1.0  0.6536343597182013  0.5867583774061669  0.08420966616875124  1.0000
  S   S11       1.0  0.8463656401943204  0.08675837744271932  0.4157903338345634  1.0000
  S   S12       1.0  0.15363435993041172  0.08675837744271932  0.08420966628070675  1.0000
  S   S13       1.0  0.6536343597388974  0.413241624211149  0.5842096661299185  1.0000
  S   S14       1.0  0.3463656404272269  0.413241624211149  0.9157903339076862  1.0000
  S   S15       1.0  0.15363435942712814  0.9132416241745966  0.5842096662351406  1.0000
  S   S16       1.0  0.8463656402150165  0.9132416241745966  0.9157903337957308  1.0000
  S   S17       1.0  0.18222251566307782  0.07232948818759814  0.4452508357006483  1.0000
  S   S18       1.0  0.8177774844616541  0.07232948818759814  0.05474916441462181  1.0000
  S   S19       1.0  0.6822225154508672  0.5723294881510457  0.44525083558869283  1.0000
  S   S20       1.0  0.31777748466938743  0.5723294881510457  0.05474916415529686  1.0000
  S   S21       1.0  0.8177774844823502  0.9276705117392969  0.5547491643757891  1.0000
  S   S22       1.0  0.18222251568377393  0.9276705117392969  0.9452508356618156  1.0000
  S   S23       1.0  0.3177774846945608  0.42767051177584947  0.5547491644877447  1.0000
  S   S24       1.0  0.6822225154715633  0.42767051177584947  0.9452508355498602  1.0000
  S   S25       1.0  0.18718020980127212  0.6977706165483315  0.37053830895531786  1.0000
  S   S26       1.0  0.8128197903234599  0.6977706165483315  0.1294616911599523  1.0000
  S   S27       1.0  0.6871802095890616  0.19777061658488387  0.37053830884336236  1.0000
  S   S28       1.0  0.31281979053119313  0.19777061658488387  0.12946169090062737  1.0000
  S   S29       1.0  0.812819790344156  0.3022293833785637  0.6294616911211195  1.0000
  S   S30       1.0  0.18718020982196823  0.3022293833785637  0.8705383089164851  1.0000
  S   S31       1.0  0.3128197905518893  0.8022293833420112  0.6294616908617947  1.0000
  S   S32       1.0  0.6871802096142349  0.8022293833420112  0.8705383091758101  1.0000
  S   S33       1.0  0.5094198781029267  0.2675839489224819  0.474192550633817  1.0000
  S   S34       1.0  0.4905801220218053  0.2675839489224819  0.02580744948145313  1.0000
  S   S35       1.0  0.009419877786680268  0.7675839488859295  0.47419255036775865  1.0000
  S   S36       1.0  0.9905801218095949  0.7675839488859295  0.025807449369497623  1.0000
  S   S37       1.0  0.49058012204250145  0.7324160510044133  0.5258074494426205  1.0000
  S   S38       1.0  0.5094198781236228  0.7324160510044133  0.9741925505949843  1.0000
  S   S39       1.0  0.9905801218302908  0.23241605104096572  0.5258074493306649  1.0000
  S   S40       1.0  0.009419877811853605  0.23241605104096572  0.9741925507002064  1.0000
