data_image0
_chemical_formula_structural       H16C24N4O8S12Cl4
_chemical_formula_sum              "H16 C24 N4 O8 S12 Cl4"
_cell_length_a       7.979108968440522
_cell_length_b       8.760442000623984
_cell_length_c       13.221143984242872
_cell_angle_alpha    90.0
_cell_angle_beta     90.0
_cell_angle_gamma    90.0

_space_group_name_H-M_alt    "P 1"
_space_group_IT_number       1

loop_
  _space_group_symop_operation_xyz
  'x, y, z'

loop_
  _atom_site_type_symbol
  _atom_site_label
  _atom_site_symmetry_multiplicity
  _atom_site_fract_x
  _atom_site_fract_y
  _atom_site_fract_z
  _atom_site_occupancy
  H   H1        1.0  0.6796956190786262  0.9630027023064707  0.9006890579357031  1.0000
  H   H2        1.0  0.8203043805879049  0.4630027023420843  0.4006890580961609  1.0000
  H   H3        1.0  0.6796956190786262  0.5369972975866882  0.9006890579357031  1.0000
  H   H4        1.0  0.8203043805879049  0.036997297622301965  0.4006890580961609  1.0000
  H   H5        1.0  0.320304379863546  0.036997297622301965  0.09931094174338131  1.0000
  H   H6        1.0  0.1796956196075401  0.5369972975866882  0.5993109423392877  1.0000
  H   H7        1.0  0.320304379863546  0.4630027023420843  0.09931094174338131  1.0000
  H   H8        1.0  0.1796956196075401  0.9630027023064707  0.5993109423392877  1.0000
  H   H9        1.0  0.4176309714756642  0.1081337573986023  0.9335660714920222  1.0000
  H   H10       1.0  0.08236902924869476  0.6081337573629886  0.43356607165248  1.0000
  H   H11       1.0  0.4176309714756642  0.391866242565784  0.9335660714920222  1.0000
  H   H12       1.0  0.08236902924869476  0.8918662425301702  0.43356607165248  1.0000
  H   H13       1.0  0.5823690287197809  0.8918662425301702  0.06643392894342638  1.0000
  H   H14       1.0  0.9176309709467504  0.391866242565784  0.5664339287829686  1.0000
  H   H15       1.0  0.5823690287197809  0.6081337573629886  0.06643392894342638  1.0000
  H   H16       1.0  0.9176309709467504  0.1081337573986023  0.5664339287829686  1.0000
  C   C1        1.0  0.8267840677565469  0.1686636792863598  0.8829667269271873  1.0000
  C   C2        1.0  0.6732159331632571  0.6686636792507461  0.38296672708764506  1.0000
  C   C3        1.0  0.8267840677565469  0.33133632067802643  0.8829667269271873  1.0000
  C   C4        1.0  0.6732159331632571  0.8313363206424127  0.38296672708764506  1.0000
  C   C5        1.0  0.17321593243889816  0.8313363206424127  0.11703327275189715  1.0000
  C   C6        1.0  0.326784067032188  0.33133632067802643  0.6170332725914393  1.0000
  C   C7        1.0  0.17321593243889816  0.6686636792507461  0.11703327275189715  1.0000
  C   C8        1.0  0.326784067032188  0.1686636792863598  0.6170332725914393  1.0000
  C   C9        1.0  0.6786050286337009  0.08710060290858047  0.9017419418628876  1.0000
  C   C10       1.0  0.8213949710328304  0.5871006028729668  0.40174194202334534  1.0000
  C   C11       1.0  0.6786050286337009  0.4128993970558058  0.9017419418628876  1.0000
  C   C12       1.0  0.8213949710328304  0.9128993970201921  0.40174194202334534  1.0000
  C   C13       1.0  0.32139497156174424  0.9128993970201921  0.09825805781619693  1.0000
  C   C14       1.0  0.1786050291626147  0.4128993970558058  0.5982580576557391  1.0000
  C   C15       1.0  0.32139497156174424  0.5871006028729668  0.09825805781619693  1.0000
  C   C16       1.0  0.1786050291626147  0.08710060290858047  0.5982580576557391  1.0000
  C   C17       1.0  0.5338786594905436  0.16956269328581772  0.9203100499095573  1.0000
  C   C18       1.0  0.9661213401759876  0.669562693250204  0.42031005007001515  1.0000
  C   C19       1.0  0.5338786594905436  0.3304373066785685  0.9203100499095573  1.0000
  C   C20       1.0  0.9661213401759876  0.8304373066429548  0.42031005007001515  1.0000
  C   C21       1.0  0.4661213394516287  0.8304373066429548  0.07968994976952712  1.0000
  C   C22       1.0  0.03387866001945741  0.3304373066785685  0.5796899503654336  1.0000
  C   C23       1.0  0.4661213394516287  0.669562693250204  0.07968994976952712  1.0000
  C   C24       1.0  0.03387866001945741  0.16956269328581772  0.5796899503654336  1.0000
  N   N1        1.0  0.12229473163727402  0.2499999999821931  0.8398064405949242  1.0000
  N   N2        1.0  0.3777052690870849  0.7499999999465794  0.33980644075538197  1.0000
  N   N3        1.0  0.8777052685581711  0.7499999999465794  0.16019355908416022  1.0000
  N   N4        1.0  0.6222947311083602  0.2499999999821931  0.6601935596800667  1.0000
  O   O1        1.0  0.16443426643118417  0.10919836007496676  0.3223917578599831  1.0000
  O   O2        1.0  0.33556573303990195  0.609198360039353  0.8223917576995253  1.0000
  O   O3        1.0  0.16443426643118417  0.3908016398894195  0.3223917578599831  1.0000
  O   O4        1.0  0.33556573303990195  0.8908016398538058  0.8223917576995253  1.0000
  O   O5        1.0  0.8355657337642608  0.8908016398538058  0.6776082418191013  1.0000
  O   O6        1.0  0.6644342671555431  0.3908016398894195  0.1776082419795591  1.0000
  O   O7        1.0  0.8355657337642608  0.609198360039353  0.6776082418191013  1.0000
  O   O8        1.0  0.6644342671555431  0.10919836007496676  0.1776082419795591  1.0000
  S   S1        1.0  0.020791817815269713  0.09360308645860485  0.8558009725546417  1.0000
  S   S2        1.0  0.4792081829090892  0.5936030864229911  0.3558009719587353  1.0000
  S   S3        1.0  0.020791817815269713  0.40639691350578144  0.8558009725546417  1.0000
  S   S4        1.0  0.4792081829090892  0.9063969134701677  0.3558009719587353  1.0000
  S   S5        1.0  0.9792081823801754  0.9063969134701677  0.14419902788080688  1.0000
  S   S6        1.0  0.5207918172863559  0.40639691350578144  0.6441990277203491  1.0000
  S   S7        1.0  0.9792081823801754  0.5936030864229911  0.14419902788080688  1.0000
  S   S8        1.0  0.5207918172863559  0.09360308645860485  0.6441990277203491  1.0000
  S   S9        1.0  0.23607225787369457  0.2499999999821931  0.2811726787357035  1.0000
  S   S10       1.0  0.2639277415973916  0.7499999999465794  0.7811726785752457  1.0000
  S   S11       1.0  0.7639277423217504  0.7499999999465794  0.7188273209433809  1.0000
  S   S12       1.0  0.7360722585980535  0.2499999999821931  0.21882732110383868  1.0000
  Cl  Cl1       1.0  0.08820259038742642  0.2499999999821931  0.09874459135729338  1.0000
  Cl  Cl2       1.0  0.4117974103369325  0.7499999999465794  0.5987445919531998  1.0000
  Cl  Cl3       1.0  0.9117974098080187  0.7499999999465794  0.901255408321791  1.0000
  Cl  Cl4       1.0  0.5882025898585126  0.2499999999821931  0.40125540848224883  1.0000
