data_image0
_chemical_formula_structural       H112C96N8O24
_chemical_formula_sum              "H112 C96 N8 O24"
_cell_length_a       10.141009224105586
_cell_length_b       13.421251871951428
_cell_length_c       16.154583498151265
_cell_angle_alpha    90.0
_cell_angle_beta     93.29897594946411
_cell_angle_gamma    90.0

_space_group_name_H-M_alt    "P 1"
_space_group_IT_number       1

loop_
  _space_group_symop_operation_xyz
  'x, y, z'

loop_
  _atom_site_type_symbol
  _atom_site_label
  _atom_site_symmetry_multiplicity
  _atom_site_fract_x
  _atom_site_fract_y
  _atom_site_fract_z
  _atom_site_occupancy
  H   H1        1.0  0.6750107040679523  0.5676252947700862  0.31616369457103816  1.0000
  H   H2        1.0  0.3249892963463067  0.06762529521532884  0.1838363056104302  1.0000
  H   H3        1.0  0.3249892959773379  0.4323747050845155  0.6838363056037845  1.0000
  H   H4        1.0  0.6750107036989835  0.932374704639273  0.8161636945643924  1.0000
  H   H5        1.0  0.5996723431191674  0.6014878699110681  0.40961303190948883  1.0000
  H   H6        1.0  0.40032765729509157  0.1014878703563108  0.09038696827197952  1.0000
  H   H7        1.0  0.4003276569261228  0.3985121299435335  0.5903869682653338  1.0000
  H   H8        1.0  0.5996723427501987  0.8985121302433778  0.9096130319028431  1.0000
  H   H9        1.0  0.6413025373735616  0.6713359138151647  0.6802782704790385  1.0000
  H   H10       1.0  0.35869746329049085  0.1713359135153203  0.8197217297256593  1.0000
  H   H11       1.0  0.35869746267172853  0.3286640860394371  0.31972172969578394  1.0000
  H   H12       1.0  0.6413025367547993  0.8286640863392815  0.1802782704491635  1.0000
  H   H13       1.0  0.8702156392173328  0.6831904413598344  0.742494836387185  1.0000
  H   H14       1.0  0.1297843604589886  0.1831904410599901  0.7575051637809919  1.0000
  H   H15       1.0  0.12978436082795736  0.3168095584947672  0.2575051637876376  1.0000
  H   H16       1.0  0.8702156395863017  0.8168095587946116  0.24249483639383076  1.0000
  H   H17       1.0  0.06115972817497784  0.6472777012817422  0.6576216507564305  1.0000
  H   H18       1.0  0.9388402715013436  0.14727770098189794  0.8423783494117465  1.0000
  H   H19       1.0  0.9388402708825813  0.35272229931794646  0.3423783493818712  1.0000
  H   H20       1.0  0.06115972854394658  0.8527222988727038  0.1576216507630762  1.0000
  H   H21       1.0  0.020266129435458836  0.601039995893253  0.5081562911477969  1.0000
  H   H22       1.0  0.9797338702408626  0.10103999559340868  0.99184370902038  1.0000
  H   H23       1.0  0.9797338706098315  0.39896000470643567  0.4918437090270257  1.0000
  H   H24       1.0  0.020266129804427588  0.898960004261193  0.008156291154442654  1.0000
  H   H25       1.0  0.4764193810384193  0.7257604836666948  0.5935396958932898  1.0000
  H   H26       1.0  0.5235806186379022  0.2257604841119374  0.9064603042748871  1.0000
  H   H27       1.0  0.5235806190068709  0.274239516187907  0.4064603042815329  1.0000
  H   H28       1.0  0.47641938140738804  0.7742395157426643  0.09353969589993545  1.0000
  H   H29       1.0  0.4638078620843582  0.5971616482922529  0.6195179363682548  1.0000
  H   H30       1.0  0.5361921385796943  0.09716164799240863  0.880482063836443  1.0000
  H   H31       1.0  0.536192137960932  0.40283835156234876  0.38048206380656774  1.0000
  H   H32       1.0  0.463807861465596  0.9028383518621931  0.1195179363383797  1.0000
  H   H33       1.0  0.34657552455503843  0.6956162188946802  0.4589943998130384  1.0000
  H   H34       1.0  0.6534244758605601  0.1956162193399228  0.04100559974945952  1.0000
  H   H35       1.0  0.6534244754915913  0.3043837809599216  0.5410055997428138  1.0000
  H   H36       1.0  0.34657552418606963  0.804383780514679  0.9589943998063928  1.0000
  H   H37       1.0  0.25609129346397574  0.6524072592884641  0.5432645024327053  1.0000
  H   H38       1.0  0.7439087062136853  0.1524072597337068  0.9567354971165013  1.0000
  H   H39       1.0  0.7439087065826541  0.34759274056613754  0.4567354971231469  1.0000
  H   H40       1.0  0.25609129383294454  0.8475927401208949  0.043264502439350996  1.0000
  H   H41       1.0  0.3396177317196099  0.5661206922044938  0.4814341670583787  1.0000
  H   H42       1.0  0.6603822686959886  0.06612069190464945  0.018565832504119206  1.0000
  H   H43       1.0  0.66038226832702  0.4338793076501079  0.5185658324974736  1.0000
  H   H44       1.0  0.3396177313506412  0.9338793079499522  0.981434167051733  1.0000
  H   H45       1.0  0.892803913492064  0.950150009229046  0.7696392342783369  1.0000
  H   H46       1.0  0.10719608618425745  0.45015000967428864  0.73036076588984  1.0000
  H   H47       1.0  0.10719608655322621  0.04984999062555566  0.2303607658964857  1.0000
  H   H48       1.0  0.8928039138610326  0.5498499909254  0.26963923428498265  1.0000
  H   H49       1.0  0.9633549331496901  0.9196764681687863  0.6739948619485421  1.0000
  H   H50       1.0  0.03664506751436235  0.41967646786894197  0.8260051382561557  1.0000
  H   H51       1.0  0.03664506689560004  0.08032353168581542  0.3260051382262805  1.0000
  H   H52       1.0  0.9633549325309279  0.5803235319856598  0.1739948619186669  1.0000
  H   H53       1.0  0.9018739589267474  0.8353242511922195  0.40646555831342335  1.0000
  H   H54       1.0  0.09812604148751151  0.33532425163746216  0.093534441868045  1.0000
  H   H55       1.0  0.09812604111854278  0.16467574866238222  0.5935344418613993  1.0000
  H   H56       1.0  0.9018739585577787  0.6646757482171395  0.9064655583067777  1.0000
  H   H57       1.0  0.6695708288613356  0.8294254050372305  0.34995555404625583  1.0000
  H   H58       1.0  0.33042917056519233  0.32942540473738613  0.15004444609869164  1.0000
  H   H59       1.0  0.33042917118395465  0.17057459481737125  0.6500444461285668  1.0000
  H   H60       1.0  0.6695708294800979  0.6705745951172156  0.849955554076131  1.0000
  H   H61       1.0  0.48656280957821957  0.8748475903755465  0.4380395112031485  1.0000
  H   H62       1.0  0.5134371908360393  0.3748475908207892  0.06196048897831987  1.0000
  H   H63       1.0  0.5134371904670706  0.12515240947905512  0.5619604889716742  1.0000
  H   H64       1.0  0.4865628092092508  0.6251524097788994  0.9380395111965028  1.0000
  H   H65       1.0  0.538690327649505  0.9263397765436852  0.5854193308124604  1.0000
  H   H66       1.0  0.46130967301588716  0.42633977624384073  0.9145806687732669  1.0000
  H   H67       1.0  0.46130967239712484  0.07366022331091664  0.4145806687433917  1.0000
  H   H68       1.0  0.5386903270307427  0.573660223610761  0.08541933078258532  1.0000
  H   H69       1.0  0.08645500163140314  0.9122362657977476  0.4582989320398427  1.0000
  H   H70       1.0  0.9135449987841955  0.4122362654979033  0.04170106752265527  1.0000
  H   H71       1.0  0.9135449984152268  0.08776373480194105  0.5417010675160097  1.0000
  H   H72       1.0  0.08645500126243438  0.5877637343566984  0.9582989320331969  1.0000
  H   H73       1.0  0.06957977485931635  0.7860559492254033  0.4900248479050393  1.0000
  H   H74       1.0  0.9304202255549426  0.2860559496706459  0.009975152276429014  1.0000
  H   H75       1.0  0.9304202251859738  0.2139440506291984  0.5099751522697834  1.0000
  H   H76       1.0  0.0695797744903476  0.7139440509290428  0.9900248478983936  1.0000
  H   H77       1.0  0.29620304079924054  0.854815903870813  0.530980739935924  1.0000
  H   H78       1.0  0.7037969598648119  0.35481590357096865  0.9690192602687738  1.0000
  H   H79       1.0  0.7037969592460496  0.1451840959837887  0.46901926023889867  1.0000
  H   H80       1.0  0.2962030401804782  0.645184096283633  0.030980739906048774  1.0000
  H   H81       1.0  0.2106132166483575  0.8202863380433134  0.6198105758521102  1.0000
  H   H82       1.0  0.789386783027964  0.320286337743469  0.8801894243160668  1.0000
  H   H83       1.0  0.7893867833969327  0.17971366255637536  0.3801894243227125  1.0000
  H   H84       1.0  0.21061321701732622  0.6797136621111327  0.1198105758587558  1.0000
  H   H85       1.0  0.22287846960525073  0.9480136652967842  0.5912335722587817  1.0000
  H   H86       1.0  0.7771215310588018  0.44801366574202695  0.9087664279459161  1.0000
  H   H87       1.0  0.7771215304400394  0.0519863345578174  0.408766427916041  1.0000
  H   H88       1.0  0.22287846898648841  0.5519863341125748  0.09123357222890646  1.0000
  H   H89       1.0  0.9949611810683658  0.8356547263254125  0.8577480537372404  1.0000
  H   H90       1.0  0.005038818607955524  0.3356547267706551  0.6422519464309365  1.0000
  H   H91       1.0  0.005038818976924277  0.1643452735291892  0.14225194643758227  1.0000
  H   H92       1.0  0.9949611804496035  0.6643452730839465  0.35774805370736523  1.0000
  H   H93       1.0  0.40331145149567327  0.5707696400519294  0.7802051410909188  1.0000
  H   H94       1.0  0.5966885481806481  0.07076964049717206  0.7197948590772582  1.0000
  H   H95       1.0  0.5966885485496168  0.42923035980267227  0.21979485908390387  1.0000
  H   H96       1.0  0.4033114518646421  0.9292303593574296  0.2802051410975645  1.0000
  H   H97       1.0  0.1979786085388682  0.6298808263681616  0.814513551692049  1.0000
  H   H98       1.0  0.8020213911387929  0.12988082606831722  0.6854864478571576  1.0000
  H   H99       1.0  0.8020213915077616  0.3701191742315271  0.1854864478638033  1.0000
  H   H100      1.0  0.19797860890783692  0.8701191737862844  0.31451355169869466  1.0000
  H   H101      1.0  0.15353338838296832  0.9492022384755158  0.816361248188725  1.0000
  H   H102      1.0  0.8464666122810842  0.44920223817567134  0.6836387520159728  1.0000
  H   H103      1.0  0.846466611662322  0.05079776212417299  0.18363875198609758  1.0000
  H   H104      1.0  0.153533387764206  0.5507977616789304  0.31636124815884986  1.0000
  H   H105      1.0  0.3802257595457354  0.9670300150706368  0.7668067703324988  1.0000
  H   H106      1.0  0.6197742401305861  0.46703001477079237  0.7331932298356781  1.0000
  H   H107      1.0  0.6197742404995549  0.03296998478396498  0.2331932298423238  1.0000
  H   H108      1.0  0.3802257599147041  0.5329699850838093  0.26680677033914457  1.0000
  H   H109      1.0  0.5188473723355896  0.8181030722586038  0.7435749007222773  1.0000
  H   H110      1.0  0.4811526273407317  0.3181030719587594  0.7564250994458998  1.0000
  H   H111      1.0  0.4811526277097005  0.1818969275959979  0.25642509945254527  1.0000
  H   H112      1.0  0.5188473727045584  0.6818969278958422  0.24357490072892304  1.0000
  C   C1        1.0  0.8109769618081548  0.614199487398595  0.5086074740601797  1.0000
  C   C2        1.0  0.18902303786816665  0.11419948709875065  0.9913925261079973  1.0000
  C   C3        1.0  0.1890230382371354  0.3858005124560067  0.4913925261146429  1.0000
  C   C4        1.0  0.8109769621771235  0.885800512755851  0.00860747406682538  1.0000
  C   C5        1.0  0.7025874827582932  0.6342664805948743  0.5579672651670345  1.0000
  C   C6        1.0  0.2974125179057593  0.13426648029502994  0.9420327350376633  1.0000
  C   C7        1.0  0.29741251728699697  0.36573351925972747  0.442032735007788  1.0000
  C   C8        1.0  0.7025874821395309  0.8657335195595718  0.057967265137159434  1.0000
  C   C9        1.0  0.7246599349883771  0.6580496927009734  0.6421489517858403  1.0000
  C   C10       1.0  0.27534006567701497  0.15804969240112898  0.8578510477998871  1.0000
  C   C11       1.0  0.27534006505825265  0.34195030715362834  0.357851047770012  1.0000
  C   C12       1.0  0.7246599343696148  0.8419503074534727  0.14214895175596506  1.0000
  C   C13       1.0  0.8533693896780051  0.6635278977671978  0.6772847227854832  1.0000
  C   C14       1.0  0.14663060999831623  0.16352789821244054  0.8227152773826938  1.0000
  C   C15       1.0  0.14663061036728495  0.3364721020874038  0.32271527738933947  1.0000
  C   C16       1.0  0.853369390046974  0.8364721016421612  0.17728472279212884  1.0000
  C   C17       1.0  0.9610053218782345  0.6440481508334279  0.6296313697553075  1.0000
  C   C18       1.0  0.038994678785818034  0.14404815127867057  0.8703686304493903  1.0000
  C   C19       1.0  0.03899467816705572  0.35595184902117377  0.3703686304195151  1.0000
  C   C20       1.0  0.9610053212594721  0.8559518485759311  0.12963136972543238  1.0000
  C   C21       1.0  0.9387432637076553  0.6188781776280237  0.5465851023120367  1.0000
  C   C22       1.0  0.061256735970005805  0.11887817732817929  0.9534148972371699  1.0000
  C   C23       1.0  0.06125673633897456  0.3811218229716651  0.45341489724381556  1.0000
  C   C24       1.0  0.9387432640766241  0.8811218225264225  0.046585102318682375  1.0000
  C   C25       1.0  0.7997269493754079  0.5885589515318045  0.41895568664635247  1.0000
  C   C26       1.0  0.20027305005111995  0.08855895123196013  0.08104431349859502  1.0000
  C   C27       1.0  0.20027305066988224  0.41144104832279726  0.5810443135284702  1.0000
  C   C28       1.0  0.7997269499941702  0.9114410486226415  0.9189556866762276  1.0000
  C   C29       1.0  0.4657711221509557  0.6500911340643364  0.5678329827653473  1.0000
  C   C30       1.0  0.5342288785130967  0.15009113376449199  0.9321670174393505  1.0000
  C   C31       1.0  0.5342288778943345  0.3499088657902654  0.4321670174094753  1.0000
  C   C32       1.0  0.46577112153219336  0.8499088660901097  0.06783298273547216  1.0000
  C   C33       1.0  0.34535420465156874  0.6406045346610357  0.5091978855828919  1.0000
  C   C34       1.0  0.6546457950247526  0.14060453436119147  0.9908021145852849  1.0000
  C   C35       1.0  0.6546457953937214  0.35939546519356586  0.4908021145919306  1.0000
  C   C36       1.0  0.3453542050205375  0.8593954654934102  0.009197885589537687  1.0000
  C   C37       1.0  0.7471675890190509  0.9104095271124214  0.5792869101690663  1.0000
  C   C38       1.0  0.25283241065727047  0.4104095268125771  0.9207130899991106  1.0000
  C   C39       1.0  0.25283241102623927  0.08959047274218025  0.42071309000575635  1.0000
  C   C40       1.0  0.7471675893880196  0.5895904730420246  0.079286910175712  1.0000
  C   C41       1.0  0.8511808843075049  0.8848684186323406  0.5280797081689868  1.0000
  C   C42       1.0  0.1488191163565475  0.3848684190775832  0.9719202920357111  1.0000
  C   C43       1.0  0.1488191157377852  0.11513158122226114  0.4719202920058359  1.0000
  C   C44       1.0  0.8511808836887427  0.6151315815221055  0.028079708139111575  1.0000
  C   C45       1.0  0.8223218314186661  0.8557129416520024  0.4456572288171323  1.0000
  C   C46       1.0  0.17767816899693253  0.3557129420972451  0.054342770745365615  1.0000
  C   C47       1.0  0.1776781686279638  0.14428705820259927  0.55434277073872  1.0000
  C   C48       1.0  0.8223218310496972  0.6442870585024437  0.9456572288104866  1.0000
  C   C49       1.0  0.6916223184495105  0.8518921065697572  0.41403908711005943  1.0000
  C   C50       1.0  0.30837768196474846  0.35189210701499996  0.08596091307140889  1.0000
  C   C51       1.0  0.3083776815957797  0.1481078932848444  0.5859609130647632  1.0000
  C   C52       1.0  0.6916223180805418  0.6481078935846887  0.9140390871034137  1.0000
  C   C53       1.0  0.5882317568896851  0.8774093156399276  0.4634560533382347  1.0000
  C   C54       1.0  0.4117682425368427  0.3774093160851703  0.03654394680671274  1.0000
  C   C55       1.0  0.411768243155605  0.12259068421467402  0.5365439468365879  1.0000
  C   C56       1.0  0.5882317575084475  0.6225906845145184  0.9634560533681099  1.0000
  C   C57       1.0  0.6168152619949286  0.9062122420500848  0.545019179711662  1.0000
  C   C58       1.0  0.38318473866912384  0.4062122424953274  0.9549808204930358  1.0000
  C   C59       1.0  0.38318473805036146  0.09378775780451694  0.4549808204631605  1.0000
  C   C60       1.0  0.6168152613761663  0.5937877573592742  0.04501917968178693  1.0000
  C   C61       1.0  0.7642427919884638  0.9384140391792494  0.6680171005989021  1.0000
  C   C62       1.0  0.23575720768785752  0.438414038879405  0.831982899569275  1.0000
  C   C63       1.0  0.2357572080568263  0.06158596067535237  0.33198289957592064  1.0000
  C   C64       1.0  0.7642427923574326  0.5615859609751968  0.1680171006055477  1.0000
  C   C65       1.0  0.08601687433443499  0.8625163673585735  0.512358386853122  1.0000
  C   C66       1.0  0.9139831263309572  0.36251636780381613  0.9876416127326054  1.0000
  C   C67       1.0  0.9139831257121949  0.13748363249602816  0.4876416127027303  1.0000
  C   C68       1.0  0.08601687371567268  0.6374836327958725  0.012358386823246767  1.0000
  C   C69       1.0  0.21080680985607728  0.8719847620517374  0.5671909538530572  1.0000
  C   C70       1.0  0.7891931898215838  0.37198476249698  0.9328090456961494  1.0000
  C   C71       1.0  0.7891931901905526  0.12801523780286433  0.4328090457027951  1.0000
  C   C72       1.0  0.21080681022504602  0.6280152381027087  0.06719095385970283  1.0000
  C   C73       1.0  0.23979314514943056  0.7032565322557832  0.8042990260188553  1.0000
  C   C74       1.0  0.7602068545268909  0.2032565319559389  0.6957009741493216  1.0000
  C   C75       1.0  0.7602068548958597  0.29674346834390547  0.1957009741559673  1.0000
  C   C76       1.0  0.23979314551839928  0.7967434678986628  0.304299026025501  1.0000
  C   C77       1.0  0.1623507571948286  0.7877845867788409  0.8171293991790584  1.0000
  C   C78       1.0  0.837649242481493  0.28778458722408357  0.6828706009891186  1.0000
  C   C79       1.0  0.8376492428504616  0.2122154130757608  0.1828706009957643  1.0000
  C   C80       1.0  0.16235075756379735  0.7122154126305181  0.31712939918570404  1.0000
  C   C81       1.0  0.212834324286039  0.8835974559708285  0.804353940027719  1.0000
  C   C82       1.0  0.787165675391622  0.3835974564160711  0.6956460595214875  1.0000
  C   C83       1.0  0.7871656757605907  0.11640254388377326  0.19564605952813321  1.0000
  C   C84       1.0  0.21283432465500773  0.6164025434385306  0.30435394003436467  1.0000
  C   C85       1.0  0.34104475482592206  0.8927946621016492  0.7779014685366714  1.0000
  C   C86       1.0  0.6589552448517391  0.3927946618018047  0.722098531012535  1.0000
  C   C87       1.0  0.6589552452207079  0.10720533775295259  0.2220985310191807  1.0000
  C   C88       1.0  0.3410447551948908  0.607205338052797  0.27790146854331715  1.0000
  C   C89       1.0  0.41963856414189915  0.8096165315776979  0.7649199023745308  1.0000
  C   C90       1.0  0.5803614355344222  0.30961653127785355  0.7350800977936461  1.0000
  C   C91       1.0  0.580361435903391  0.19038346827690378  0.23508009780029185  1.0000
  C   C92       1.0  0.4196385645108679  0.690383468576748  0.26491990238117646  1.0000
  C   C93       1.0  0.36890057523636927  0.7141663528445769  0.7790812210011082  1.0000
  C   C94       1.0  0.6310994244399522  0.21416635328981945  0.7209187791670686  1.0000
  C   C95       1.0  0.6310994248089209  0.2858336470100249  0.22091877917371433  1.0000
  C   C96       1.0  0.36890057461760695  0.7858336465647822  0.2790812209712331  1.0000
  N   N1        1.0  0.6812077168541733  0.5840220066490954  0.3788146172258072  1.0000
  N   N2        1.0  0.3187922825723546  0.08402200634925103  0.12118538291914027  1.0000
  N   N3        1.0  0.3187922831911169  0.4159779932055063  0.6211853829490155  1.0000
  N   N4        1.0  0.6812077164852045  0.9159779935053507  0.8788146172191615  1.0000
  N   N5        1.0  0.8848103762528569  0.9419479621286517  0.7058469028118237  1.0000
  N   N6        1.0  0.1151896244111955  0.4419479618288074  0.794153097392874  1.0000
  N   N7        1.0  0.11518962379243318  0.058052037725949905  0.2941530973629989  1.0000
  N   N8        1.0  0.8848103756340946  0.5580520380257943  0.20584690278194856  1.0000
  O   O1        1.0  0.9033956392798004  0.5706582681758734  0.3806487712072499  1.0000
  O   O2        1.0  0.09660436113445849  0.07065826787602902  0.1193512289742185  1.0000
  O   O3        1.0  0.09660436076548974  0.4293417324238153  0.6193512289675728  1.0000
  O   O4        1.0  0.9033956389108317  0.9293417319785726  0.8806487712006041  1.0000
  O   O5        1.0  0.5790071626070772  0.6286486864636449  0.5203821009412657  1.0000
  O   O6        1.0  0.42099283706924423  0.12864868616380057  0.9796178992269112  1.0000
  O   O7        1.0  0.420992837438213  0.37135131339095684  0.47961789923355697  1.0000
  O   O8        1.0  0.5790071629760459  0.8713513136908011  0.020382100947911354  1.0000
  O   O9        1.0  0.6631886071228535  0.959134883453187  0.7080748515645681  1.0000
  O   O10       1.0  0.3368113925548076  0.4591348831533427  0.7919251479846385  1.0000
  O   O11       1.0  0.3368113929237763  0.0408651164014147  0.2919251479912842  1.0000
  O   O12       1.0  0.6631886074918223  0.540865116701259  0.20807485157121366  1.0000
  O   O13       1.0  0.9772879445388953  0.8909136736334452  0.5618119555302445  1.0000
  O   O14       1.0  0.02271205612515716  0.39091367333360094  0.9381880446744533  1.0000
  O   O15       1.0  0.022712055506394845  0.10908632622115645  0.438188044644578  1.0000
  O   O16       1.0  0.9772879439201332  0.6090863265210008  0.06181195550036945  1.0000
  O   O17       1.0  0.03841247078154673  0.771502680136683  0.842535902317775  1.0000
  O   O18       1.0  0.9615875288947746  0.2715026798368387  0.6574640978504019  1.0000
  O   O19       1.0  0.9615875292637435  0.2284973197179187  0.15746409785704762  1.0000
  O   O20       1.0  0.03841247115051548  0.728497320017763  0.3425359023244207  1.0000
  O   O21       1.0  0.4493764914209645  0.6344894299909923  0.7678008321716121  1.0000
  O   O22       1.0  0.5506235082566966  0.134489429691148  0.7321991673775945  1.0000
  O   O23       1.0  0.5506235086256653  0.36551056986360936  0.2321991673842401  1.0000
  O   O24       1.0  0.4493764917899333  0.8655105701634537  0.26780083217825784  1.0000
