data_image0
_chemical_formula_structural       H92C52N8P4Cl4
_chemical_formula_sum              "H92 C52 N8 P4 Cl4"
_cell_length_a       10.87678076252239
_cell_length_b       11.104903854351553
_cell_length_c       13.396237408269718
_cell_angle_alpha    90.0
_cell_angle_beta     113.29189011717645
_cell_angle_gamma    90.0

_space_group_name_H-M_alt    "P 1"
_space_group_IT_number       1

loop_
  _space_group_symop_operation_xyz
  'x, y, z'

loop_
  _atom_site_type_symbol
  _atom_site_label
  _atom_site_symmetry_multiplicity
  _atom_site_fract_x
  _atom_site_fract_y
  _atom_site_fract_z
  _atom_site_occupancy
  H   H1        1.0  0.21379186246302367  0.1469201734115572  0.2669515500724868  1.0000
  H   H2        1.0  0.2862081375679099  0.6469201736658793  0.23304844967608124  1.0000
  H   H3        1.0  0.7862081375988437  0.8530798261965841  0.7330484494246493  1.0000
  H   H4        1.0  0.7137918619748005  0.353079826842765  0.7669515506365016  1.0000
  H   H5        1.0  0.35869469990953323  0.1892422147515039  0.4784516562209695  1.0000
  H   H6        1.0  0.14130530052029422  0.689242215005826  0.02154834434030627  1.0000
  H   H7        1.0  0.6413052996331773  0.8107577848566373  0.5215483440916133  1.0000
  H   H8        1.0  0.8586946999404667  0.31075778460231523  0.9784516559695374  1.0000
  H   H9        1.0  0.23472039116672663  0.8499030548834154  0.20833261758976235  1.0000
  H   H10       1.0  0.26527960886420693  0.34990305462909327  0.29166738215880567  1.0000
  H   H11       1.0  0.7652796088951406  0.15009694472472582  0.7916673819073737  1.0000
  H   H12       1.0  0.7347203915965541  0.650096944979048  0.7083326181510382  1.0000
  H   H13       1.0  0.2034132069240645  0.9938567973891264  0.14344865149123112  1.0000
  H   H14       1.0  0.29658679350576295  0.4938567971348041  0.3565513490700447  1.0000
  H   H15       1.0  0.7965867935366966  0.006143203119518007  0.8565513488186128  1.0000
  H   H16       1.0  0.7034132069549981  0.5061432033738401  0.6434486512397991  1.0000
  H   H17       1.0  0.09898756137324735  0.8696776304115007  0.07842274403810812  1.0000
  H   H18       1.0  0.40101243865768627  0.36967763015717847  0.42157725571045995  1.0000
  H   H19       1.0  0.9010124390875136  0.1303223691966406  0.9215772562717357  1.0000
  H   H20       1.0  0.598987561404181  0.6303223694509626  0.5784227437866761  1.0000
  H   H21       1.0  0.887355477999439  0.05482730494433016  0.1848483951343048  1.0000
  H   H22       1.0  0.6126445220539114  0.5548273051986523  0.31515160462769976  1.0000
  H   H23       1.0  0.11264452206242814  0.945172694663811  0.8151516043628313  1.0000
  H   H24       1.0  0.3873554784068496  0.4451726944094889  0.6848483956821441  1.0000
  H   H25       1.0  0.8971566396598403  0.9943210688558244  0.06499369204854172  1.0000
  H   H26       1.0  0.602843360792404  0.49432106860150216  0.43500630852617067  1.0000
  H   H27       1.0  0.10284336080092067  0.005678930752316944  0.9350063082613022  1.0000
  H   H28       1.0  0.39715663875030666  0.5056789310066391  0.5649936917864122  1.0000
  H   H29       1.0  0.0036721535243604835  0.11586395585908758  0.1335708110961506  1.0000
  H   H30       1.0  0.4963278465065731  0.6158639561134097  0.3664291886524174  1.0000
  H   H31       1.0  0.9963278465375067  0.8841360437490536  0.8664291884009855  1.0000
  H   H32       1.0  0.5036721539541879  0.38413604349473146  0.6335708116574265  1.0000
  H   H33       1.0  0.06330207059128339  0.7577842555298181  0.27285708174028395  1.0000
  H   H34       1.0  0.4366979285215997  0.257784255275496  0.22714291801102315  1.0000
  H   H35       1.0  0.936697928951427  0.24221574497882617  0.7271429185722988  1.0000
  H   H36       1.0  0.563302070622217  0.7422157452331483  0.772857081488852  1.0000
  H   H37       1.0  0.9339248586850276  0.788838710797782  0.14354410212082924  1.0000
  H   H38       1.0  0.5660751413683227  0.2888387114439629  0.3564558976411753  1.0000
  H   H39       1.0  0.0660751413768395  0.21116128881035923  0.8564558973763069  1.0000
  H   H40       1.0  0.4339248590924383  0.7111612890646813  0.6435441026686686  1.0000
  H   H41       1.0  0.920179239086122  0.8443004462686979  0.26340461757435424  1.0000
  H   H42       1.0  0.5798207600491779  0.3443004460143757  0.2365953821903894  1.0000
  H   H43       1.0  0.07982076005769473  0.15569955423994644  0.736595381925521  1.0000
  H   H44       1.0  0.42017923909463867  0.6556995535937655  0.7634046173094856  1.0000
  H   H45       1.0  0.20750566375596338  0.1823747541232774  0.6448948290464175  1.0000
  H   H46       1.0  0.29249433671331426  0.6823747543775995  0.8551051709985578  1.0000
  H   H47       1.0  0.7924943363059038  0.8176252454848639  0.35510517045071854  1.0000
  H   H48       1.0  0.7075056637474468  0.31762524613104476  0.14489482931128608  1.0000
  H   H49       1.0  0.36152200071312257  0.229257227562792  0.6401427352341229  1.0000
  H   H50       1.0  0.13847799883810463  0.7292572269166111  0.8598572648135914  1.0000
  H   H51       1.0  0.638477998829588  0.7707427729458523  0.35985726507845994  1.0000
  H   H52       1.0  0.8615220016226565  0.2707427726915302  0.14014273549625245  1.0000
  H   H53       1.0  0.3616257073154276  0.16089234660954477  0.7598286141054497  1.0000
  H   H54       1.0  0.13837429315385016  0.6608923468638669  0.7401713859395256  1.0000
  H   H55       1.0  0.6383742931453334  0.8391076529985966  0.2401713862043941  1.0000
  H   H56       1.0  0.861625706908017  0.3391076527442743  0.25982861355761044  1.0000
  H   H57       1.0  0.4877859695236596  0.9161056568727982  0.6277204823973257  1.0000
  H   H58       1.0  0.01221403094561808  0.4161056575189792  0.8722795176476495  1.0000
  H   H59       1.0  0.5122140309371014  0.08389434273534294  0.37227951791251807  1.0000
  H   H60       1.0  0.987785969116249  0.5838943429896651  0.12772048184948648  1.0000
  H   H61       1.0  0.5303710444876774  0.002874554378738833  0.7489776090219007  1.0000
  H   H62       1.0  0.9696289560040173  0.502874554633061  0.7510223910365112  1.0000
  H   H63       1.0  0.4696289555741899  0.9971254452294024  0.25102239047523545  1.0000
  H   H64       1.0  0.030371044456743712  0.49712544497508027  0.2489776092733326  1.0000
  H   H65       1.0  0.5267033128317457  0.07179706195183051  0.6278353638829015  1.0000
  H   H66       1.0  0.9732966867418985  0.5717970613056496  0.8721646361782495  1.0000
  H   H67       1.0  0.4732966867109648  0.9282029385568138  0.3721646364296814  1.0000
  H   H68       1.0  0.026703312800812035  0.4282029383024916  0.12783536413433344  1.0000
  H   H69       1.0  0.15909887713408385  0.9598232969683278  0.6549134118746378  1.0000
  H   H70       1.0  0.34090112333519385  0.4598232967140057  0.8450865881703373  1.0000
  H   H71       1.0  0.8409011229277834  0.04017670263981339  0.3450865876224982  1.0000
  H   H72       1.0  0.659098877125567  0.5401767028941356  0.15491341213950635  1.0000
  H   H73       1.0  0.31711365841264216  0.9406608005801567  0.7657493689933265  1.0000
  H   H74       1.0  0.1828863420566356  0.44066080122633755  0.7342506310516488  1.0000
  H   H75       1.0  0.682886341649225  0.05933919902798459  0.2342506305038095  1.0000
  H   H76       1.0  0.8171136584041254  0.5593391992823068  0.26574936925819503  1.0000
  H   H77       1.0  0.27481226727723024  0.8490238189955537  0.648459966247367  1.0000
  H   H78       1.0  0.22518773319204755  0.3490238196417346  0.8515400337976083  1.0000
  H   H79       1.0  0.7251877331835308  0.15097618061258758  0.3515400340624768  1.0000
  H   H80       1.0  0.7748122668698197  0.6509761808669098  0.14845996569952774  1.0000
  H   H81       1.0  0.16925980953836142  0.38389887169797  0.45793293753214975  1.0000
  H   H82       1.0  0.33074019089146595  0.8838988719522922  0.042067063029126064  1.0000
  H   H83       1.0  0.8307401909223997  0.6161011279101712  0.5420670627776941  1.0000
  H   H84       1.0  0.669259809569295  0.11610112855635213  0.9579329372807177  1.0000
  H   H85       1.0  0.18073724514101172  0.6088335341463248  0.4668268277354968  1.0000
  H   H86       1.0  0.31926275528881565  0.10883353389200258  0.033173172825778974  1.0000
  H   H87       1.0  0.8192627553197492  0.3911664663623196  0.5331731725743469  1.0000
  H   H88       1.0  0.6807372451719453  0.8911664657161387  0.9668268274840648  1.0000
  H   H89       1.0  0.9884609143141653  0.2763283762062958  0.4912478181254408  1.0000
  H   H90       1.0  0.5115390857391853  0.776328376460618  0.008752181636563766  1.0000
  H   H91       1.0  0.011539086146595795  0.7236716234018455  0.508752182184403  1.0000
  H   H92       1.0  0.4884609134046314  0.2236716240480264  0.9912478178633113  1.0000
  C   C1        1.0  0.21499560969360837  0.09528532564335178  0.3362581313236076  1.0000
  C   C2        1.0  0.2850043903373252  0.5952853258976739  0.16374186842496044  1.0000
  C   C3        1.0  0.7850043903682589  0.9047146739647894  0.6637418681735285  1.0000
  C   C4        1.0  0.7149956092053852  0.4047146746109704  0.8362581318876224  1.0000
  C   C5        1.0  0.28608477841225816  0.11807225503228487  0.4435179728834398  1.0000
  C   C6        1.0  0.2139152220175693  0.618072255286607  0.056482027677836  1.0000
  C   C7        1.0  0.7139152220485029  0.8819277445758564  0.5564820274264041  1.0000
  C   C8        1.0  0.7860847784431916  0.3819277443215342  0.9435179726320078  1.0000
  C   C9        1.0  0.059755152031893424  0.9408216754534047  0.2118850636832551  1.0000
  C   C10       1.0  0.4402448479990402  0.44082167609958556  0.2881149360653129  1.0000
  C   C11       1.0  0.9402448484288676  0.05917832415473659  0.7881149366265888  1.0000
  C   C12       1.0  0.559755152062827  0.5591783244090587  0.7118850634318231  1.0000
  C   C13       1.0  0.15629028233123804  0.9116745442179403  0.15741062883365917  1.0000
  C   C14       1.0  0.34370971809858936  0.4116745439636181  0.3425893717276166  1.0000
  C   C15       1.0  0.8437097172114726  0.08832545539020106  0.8425893714789239  1.0000
  C   C16       1.0  0.6562902823621717  0.5883254556445232  0.6574106285822273  1.0000
  C   C17       1.0  0.9555398075216439  0.03304941715962572  0.14513924760710603  1.0000
  C   C18       1.0  0.5444601925317065  0.5330494174139478  0.35486075215489854  1.0000
  C   C19       1.0  0.04446019202106656  0.9669505824485156  0.8548607527054768  1.0000
  C   C20       1.0  0.45553980753016066  0.4669505830946964  0.6451392473422375  1.0000
  C   C21       1.0  0.9905814616419201  0.8258962518082557  0.22494518729727778  1.0000
  C   C22       1.0  0.5094185388103243  0.3258962524544366  0.27505481327743453  1.0000
  C   C23       1.0  0.009418538818841058  0.17410374779988555  0.7750548130125661  1.0000
  C   C24       1.0  0.4905814616504367  0.6741037480542077  0.7249451870324093  1.0000
  C   C25       1.0  0.3303191881009008  0.03451032039776072  0.6297702808987391  1.0000
  C   C26       1.0  0.16968081236837704  0.5345103197515798  0.8702297191462363  1.0000
  C   C27       1.0  0.6696808119609664  0.9654896801108837  0.37022971859839693  1.0000
  C   C28       1.0  0.830319188092384  0.4654896798565614  0.1297702811636076  1.0000
  C   C29       1.0  0.313917535049866  0.15961018422554354  0.6707027752991864  1.0000
  C   C30       1.0  0.18608246450136115  0.6596101844798656  0.829297224748528  1.0000
  C   C31       1.0  0.6860824644928444  0.8403898153825977  0.3292972250133964  1.0000
  C   C32       1.0  0.8139175350413493  0.34038981512827554  0.170702775564055  1.0000
  C   C33       1.0  0.4780435609428013  0.004541527838643763  0.6601584487702035  1.0000
  C   C34       1.0  0.02195643860842589  0.5045415280929659  0.8398415512775108  1.0000
  C   C35       1.0  0.5219564382010153  0.9954584726700006  0.3398415507296716  1.0000
  C   C36       1.0  0.9780435609342846  0.49545847241567836  0.160158449035072  1.0000
  C   C37       1.0  0.265643034913401  0.9401508718068623  0.6767577144466397  1.0000
  C   C38       1.0  0.23435696463782607  0.44015087155254023  0.8232422856010745  1.0000
  C   C39       1.0  0.7343569651484662  0.05984912780127883  0.3232422850504963  1.0000
  C   C40       1.0  0.7656430349048844  0.5598491280556009  0.17675771471150822  1.0000
  C   C41       1.0  0.09518982792853431  0.434985563437106  0.4764218151729681  1.0000
  C   C42       1.0  0.4048101721023993  0.9349855636914282  0.02357818457559997  1.0000
  C   C43       1.0  0.9048101725322266  0.5650144361710353  0.5235781851368757  1.0000
  C   C44       1.0  0.5951898279594678  0.06501443591671316  0.976421814921536  1.0000
  C   C45       1.0  0.1018138924307907  0.5607179271128949  0.4813462554896731  1.0000
  C   C46       1.0  0.3981861076001429  0.0607179277590758  0.018653744258894957  1.0000
  C   C47       1.0  0.8981861076310764  0.43928207249524637  0.518653744007463  1.0000
  C   C48       1.0  0.6018138919425675  0.9392820727495684  0.9813462560536879  1.0000
  C   C49       1.0  0.9936064387102039  0.37448653266551263  0.4949911265105053  1.0000
  C   C50       1.0  0.5063935613431466  0.8744865329198347  0.005008873251499289  1.0000
  C   C51       1.0  0.006393561351663333  0.6255134669426287  0.5050088729866308  1.0000
  C   C52       1.0  0.4936064391176144  0.12551346758880955  0.9949911270583446  1.0000
  N   N1        1.0  0.13808770638767712  0.9922884290152592  0.3217091463982721  1.0000
  N   N2        1.0  0.361912292725206  0.49228842876093704  0.178290853353035  1.0000
  N   N3        1.0  0.8619122927561397  0.007711571493385121  0.678290853101603  1.0000
  N   N4        1.0  0.6380877064186108  0.5077115708472042  0.8217091461468402  1.0000
  N   N5        1.0  0.26025403881842596  0.03324973406728884  0.5086669354669638  1.0000
  N   N6        1.0  0.23974596165085174  0.5332497334211079  0.9913330645780115  1.0000
  N   N7        1.0  0.7397459616423351  0.9667502664413554  0.49133306484288003  1.0000
  N   N8        1.0  0.7602540384110156  0.4667502661870333  0.00866693491912451  1.0000
  P   P1        1.0  0.1622843454079698  0.9189022916214936  0.43807696562211146  1.0000
  P   P2        1.0  0.3377156541038071  0.4189022922676745  0.06192303494190339  1.0000
  P   P3        1.0  0.8377156541347407  0.08109770798664763  0.5619230346904714  1.0000
  P   P4        1.0  0.6622843454389034  0.5810977082409698  0.9380769653706795  1.0000
  Cl  Cl1       1.0  0.6571212608224122  0.24192140834675177  0.5665547355114123  1.0000
  Cl  Cl2       1.0  0.842878738751232  0.7419214086010739  0.9334452645497386  1.0000
  Cl  Cl3       1.0  0.3428787396383489  0.7580785912613895  0.43344526479843154  1.0000
  Cl  Cl4       1.0  0.1571212607914785  0.2580785910070673  0.06655473576284424  1.0000
