data_image0
_chemical_formula_structural       H68C44N32O12Cl4
_chemical_formula_sum              "H68 C44 N32 O12 Cl4"
_cell_length_a       11.803856905666727
_cell_length_b       10.217378360933871
_cell_length_c       12.729196813566437
_cell_angle_alpha    90.0
_cell_angle_beta     99.63694744219218
_cell_angle_gamma    90.0

_space_group_name_H-M_alt    "P 1"
_space_group_IT_number       1

loop_
  _space_group_symop_operation_xyz
  'x, y, z'

loop_
  _atom_site_type_symbol
  _atom_site_label
  _atom_site_symmetry_multiplicity
  _atom_site_fract_x
  _atom_site_fract_y
  _atom_site_fract_z
  _atom_site_occupancy
  H   H1        1.0  0.05916015584036355  0.32211281541493075  0.6670735387198976  1.0000
  H   H2        1.0  0.44083984459591197  0.8221128153692305  0.832926461261204  1.0000
  H   H3        1.0  0.9408398438640255  0.6778871844936689  0.3329264609662439  1.0000
  H   H4        1.0  0.5591601561014335  0.17788718453936908  0.16707353921959125  1.0000
  H   H5        1.0  0.8523470664520206  0.26138584925183284  0.9001806679575757  1.0000
  H   H6        1.0  0.6476529331776494  0.7613858492061326  0.5998193319700553  1.0000
  H   H7        1.0  0.14765293339854135  0.7386141506567668  0.09981933252540322  1.0000
  H   H8        1.0  0.35234706652673964  0.23861415070246697  0.4001806677160862  1.0000
  H   H9        1.0  0.20824198225155904  0.41282326160372085  0.7970781178320924  1.0000
  H   H10       1.0  0.2917580173379331  0.9128232615580206  0.702921882151193  1.0000
  H   H11       1.0  0.7917580174528299  0.5871767383048788  0.2029218818540492  1.0000
  H   H12       1.0  0.708241982512629  0.08717673835057901  0.297078118331786  1.0000
  H   H13       1.0  0.7423767636319024  0.17121796004822754  0.739748701130279  1.0000
  H   H14       1.0  0.7576232359977676  0.6712179600025274  0.760251298797352  1.0000
  H   H15       1.0  0.25762323607248655  0.828782039860372  0.26025129855586254  1.0000
  H   H16       1.0  0.24237676385279447  0.32878203990607235  0.2397487016856269  1.0000
  H   H17       1.0  0.6051667888570778  0.1192805137431171  0.6904666749186692  1.0000
  H   H18       1.0  0.8948332107725923  0.619280513697417  0.8095333250089618  1.0000
  H   H19       1.0  0.3948332109934843  0.8807194861654825  0.30953332556430957  1.0000
  H   H20       1.0  0.10516678893179676  0.38071948621118273  0.19046667467717987  1.0000
  H   H21       1.0  0.8484081547855488  0.28357361033806117  0.08922112415820606  1.0000
  H   H22       1.0  0.6515918451799102  0.783573610292361  0.4107788760276291  1.0000
  H   H23       1.0  0.15159184491884026  0.7164263895705385  0.9107788755279356  1.0000
  H   H24       1.0  0.3484081546706519  0.21642638961623864  0.5892211244553497  1.0000
  H   H25       1.0  0.7463420348179854  0.29991392427204966  0.17165845606628782  1.0000
  H   H26       1.0  0.7536579651474735  0.7999139242263494  0.32834154411954736  1.0000
  H   H27       1.0  0.2536579650325767  0.70008607563655  0.8283415444166911  1.0000
  H   H28       1.0  0.24634203455691545  0.20008607568225018  0.6716584555665942  1.0000
  H   H29       1.0  0.325586912754792  0.13331426339344268  0.9257070963838212  1.0000
  H   H30       1.0  0.17441308683470014  0.6333142633477425  0.574292903599464  1.0000
  H   H31       1.0  0.674413086949597  0.8666857365151569  0.07429290330232032  1.0000
  H   H32       1.0  0.825586913015862  0.3666857365608571  0.4257070968835148  1.0000
  H   H33       1.0  0.3713429343636315  0.18419367410291212  0.06015080139737931  1.0000
  H   H34       1.0  0.12865706556164952  0.6841936740572119  0.4398491988441101  1.0000
  H   H35       1.0  0.6286570663337139  0.8158063267844121  0.9398491990834157  1.0000
  H   H36       1.0  0.8713429342889125  0.31580632585138774  0.5601508016388688  1.0000
  H   H37       1.0  0.455401218800025  0.11105712443209227  0.8006351543671012  1.0000
  H   H38       1.0  0.04459878078946717  0.611057124386392  0.6993648456161841  1.0000
  H   H39       1.0  0.5445987809043641  0.8889428754765074  0.1993648453190403  1.0000
  H   H40       1.0  0.9554012189149219  0.3889428755222075  0.30063515406995756  1.0000
  H   H41       1.0  0.6379583939774476  0.4655170672925209  0.41827088406264135  1.0000
  H   H42       1.0  0.8620416068347948  0.9655170672468206  0.08172911612101004  1.0000
  H   H43       1.0  0.36204160671989793  0.5344829326160788  0.5817291164181537  1.0000
  H   H44       1.0  0.13795839371637753  0.034482932661778945  0.9182708835629478  1.0000
  H   H45       1.0  0.604357340928242  0.470342462639385  0.12947916942977972  1.0000
  H   H46       1.0  0.895642659037217  0.9703424625936847  0.3705208307560555  1.0000
  H   H47       1.0  0.39564265892232003  0.5296575372692147  0.870520831053199  1.0000
  H   H48       1.0  0.10435734151395538  0.029657537314914863  0.6294791689279022  1.0000
  H   H49       1.0  0.5084540918498403  0.6063891686432281  0.12963719861726586  1.0000
  H   H50       1.0  0.9915459081156187  0.10638916868892834  0.3703628015685693  1.0000
  H   H51       1.0  0.49154590785454877  0.39361083126537144  0.8703628010688756  1.0000
  H   H52       1.0  0.00845409173494335  0.8936108312196713  0.6296371989144095  1.0000
  H   H53       1.0  0.4543898506644424  0.44182539987560876  0.12187600829317861  1.0000
  H   H54       1.0  0.04561014926083864  0.9418253998299085  0.37812399194831076  1.0000
  H   H55       1.0  0.5456101490399466  0.5581746000329908  0.8781239913929629  1.0000
  H   H56       1.0  0.9543898505897234  0.05817460007869106  0.621876008534668  1.0000
  H   H57       1.0  0.43547476500462345  0.6557059103943816  0.30496501655687797  1.0000
  H   H58       1.0  0.06452523492065756  0.1557059104400819  0.19503498368461147  1.0000
  H   H59       1.0  0.5645252355465489  0.3442940895142179  0.6950349831270798  1.0000
  H   H60       1.0  0.9354747649299044  0.8442940894685178  0.8049650167983672  1.0000
  H   H61       1.0  0.4677942238215689  0.536834772701778  0.4078869085470816  1.0000
  H   H62       1.0  0.032205776103712176  0.03683477274747815  0.09211309169440782  1.0000
  H   H63       1.0  0.5322057760289932  0.4631652272068217  0.5921130919358972  1.0000
  H   H64       1.0  0.9677942236006768  0.9631652271611214  0.9078869079917337  1.0000
  H   H65       1.0  0.3671914272706057  0.49922343773650657  0.29076080742726185  1.0000
  H   H66       1.0  0.1328085725085023  0.9992234376908065  0.2092391920173903  1.0000
  H   H67       1.0  0.6328085724337834  0.5007765621720932  0.7092391922588798  1.0000
  H   H68       1.0  0.8671914271958867  0.0007765622177932921  0.7907608076687512  1.0000
  C   C1        1.0  0.9421157332726926  0.2943035105264672  0.7742155880743292  1.0000
  C   C2        1.0  0.5578842672037608  0.794303510480767  0.725784411851118  1.0000
  C   C3        1.0  0.057884267278479735  0.7056964893821324  0.22578441160962853  1.0000
  C   C4        1.0  0.4421157325006283  0.2056964894278326  0.2742155878350236  1.0000
  C   C5        1.0  0.014256194918549707  0.341060304013396  0.9629715804490966  1.0000
  C   C6        1.0  0.4857438055177257  0.8410603039676958  0.5370284195320048  1.0000
  C   C7        1.0  0.9857438056326226  0.6589396958952036  0.037028419234861096  1.0000
  C   C8        1.0  0.5142561943328364  0.15893969594090382  0.46297158095097407  1.0000
  C   C9        1.0  0.11973208327349458  0.3850287873297894  0.9302615185646815  1.0000
  C   C10       1.0  0.38026791631599755  0.8850287872840892  0.5697384814186035  1.0000
  C   C11       1.0  0.8802679165770676  0.6149712125788103  0.06973848191829721  1.0000
  C   C12       1.0  0.6197320833883915  0.11497121262451043  0.430261518267538  1.0000
  C   C13       1.0  0.13105045073510968  0.37964882311018344  0.8254601183663002  1.0000
  C   C14       1.0  0.3689495488543825  0.8796488230644833  0.6745398816169851  1.0000
  C   C15       1.0  0.8689495489692795  0.6203511767984162  0.17453988131984138  1.0000
  C   C16       1.0  0.6310504508500066  0.12035117684411635  0.32546011806915653  1.0000
  C   C17       1.0  0.6364077422668372  0.15456279822602734  0.8507055862441933  1.0000
  C   C18       1.0  0.8635922582096163  0.6545627981803271  0.6492944136812538  1.0000
  C   C19       1.0  0.36359225843050835  0.8454372016825723  0.14929441423660178  1.0000
  C   C20       1.0  0.13640774149477272  0.34543720172827247  0.3507055860048876  1.0000
  C   C21       1.0  0.5225778144914014  0.1398721442541722  0.8656393103014899  1.0000
  C   C22       1.0  0.9774221851382686  0.639872144208472  0.6343606896261411  1.0000
  C   C23       1.0  0.4774221852129876  0.8601278556544274  0.13436068938465165  1.0000
  C   C24       1.0  0.022577814566120326  0.3601278557001276  0.36563931006000044  1.0000
  C   C25       1.0  0.4973536894138921  0.16392193876305838  0.9674768403151233  1.0000
  C   C26       1.0  0.002646310175600068  0.6639219387173583  0.5325231596681618  1.0000
  C   C27       1.0  0.5026463102904969  0.8360780611455413  0.032523159371018115  1.0000
  C   C28       1.0  0.9973536896749621  0.33607806119124145  0.46747684081481705  1.0000
  C   C29       1.0  0.6887344734246582  0.2159148298192574  0.026604380411200234  1.0000
  C   C30       1.0  0.8112655272414109  0.7159148297735572  0.4733956189756139  1.0000
  C   C31       1.0  0.311265527126514  0.7840851700893423  0.9733956192727575  1.0000
  C   C32       1.0  0.1887344733097614  0.2840851701350424  0.5266043807083439  1.0000
  C   C33       1.0  0.6386890232307877  0.4581221634991085  0.33161045173593867  1.0000
  C   C34       1.0  0.8613109767346713  0.9581221634534082  0.16838954844989648  1.0000
  C   C35       1.0  0.36131097746655777  0.5418778364094913  0.6683895487448565  1.0000
  C   C36       1.0  0.1386890229697177  0.04187783645519137  0.831610451236245  1.0000
  C   C37       1.0  0.5263446586669874  0.5050164482240412  0.15623541195154242  1.0000
  C   C38       1.0  0.9736553412984715  0.005016448269741405  0.3437645882342928  1.0000
  C   C39       1.0  0.4736553410374016  0.49498355168455843  0.8437645877345992  1.0000
  C   C40       1.0  0.026344659398873885  0.9949835516388583  0.6562354122465024  1.0000
  C   C41       1.0  0.44758049064145355  0.5508436089162879  0.321384569656334  1.0000
  C   C42       1.0  0.052419509283827444  0.050843608961988036  0.17861543058515536  1.0000
  C   C43       1.0  0.5524195090629355  0.44915639099231175  0.6786154300298074  1.0000
  C   C44       1.0  0.9475804905667345  0.9491563909466116  0.8213845698978235  1.0000
  N   N1        1.0  0.04502685681857983  0.3352461442650268  0.7499092884836994  1.0000
  N   N2        1.0  0.4549731436176956  0.8352461442193266  0.7500907114974019  1.0000
  N   N3        1.0  0.9549731437325925  0.6647538556435728  0.2500907112002583  1.0000
  N   N4        1.0  0.5450268560866934  0.164753855689273  0.24990928818873964  1.0000
  N   N5        1.0  0.9313850911754942  0.29650538454984865  0.8802848808656853  1.0000
  N   N6        1.0  0.568614908454176  0.7965053854828731  0.6197151190619457  1.0000
  N   N7        1.0  0.0686149085288949  0.703494615358751  0.1197151188204562  1.0000
  N   N8        1.0  0.43138509125021307  0.20349461540445116  0.38028488062419585  1.0000
  N   N9        1.0  0.6682246312835803  0.12845793153930307  0.7554625172155618  1.0000
  N   N10       1.0  0.831775369192873  0.628457931493603  0.7445374827098854  1.0000
  N   N11       1.0  0.3317753684208088  0.8715420683692965  0.24453748247057974  1.0000
  N   N12       1.0  0.16822463150447226  0.37154206841499676  0.25546251777090967  1.0000
  N   N13       1.0  0.7719005234314598  0.2531707986747758  0.10871892155797436  1.0000
  N   N14       1.0  0.7280994765339993  0.7531707986290757  0.3912810786278608  1.0000
  N   N15       1.0  0.22809947641910236  0.7468292012338239  0.8912810789250045  1.0000
  N   N16       1.0  0.2719005240171731  0.24682920127952404  0.6087189210560969  1.0000
  N   N17       1.0  0.38945396848287767  0.15399149511932056  0.988243517745552  1.0000
  N   N18       1.0  0.1105460311066145  0.6539914950736204  0.5117564822377332  1.0000
  N   N19       1.0  0.6105460312215114  0.8460085047892791  0.011756481940589508  1.0000
  N   N20       1.0  0.8894539687439477  0.34600850483497925  0.48824351824524564  1.0000
  N   N21       1.0  0.7205706833557319  0.19632083878478016  0.9308330653873761  1.0000
  N   N22       1.0  0.7794293162739382  0.69632083873908  0.5691669345402548  1.0000
  N   N23       1.0  0.27942931634865714  0.8036791611238195  0.06916693429876536  1.0000
  N   N24       1.0  0.22057068357662393  0.30367916116951965  0.430833065942724  1.0000
  N   N25       1.0  0.581817028670674  0.19925863250638376  0.0492059704230572  1.0000
  N   N26       1.0  0.9181829712947851  0.6992586334394082  0.450794029762778  1.0000
  N   N27       1.0  0.41818297103371505  0.8007413674022159  0.9507940292630842  1.0000
  N   N28       1.0  0.08181702940256032  0.3007413674479161  0.549205970718017  1.0000
  N   N29       1.0  0.5412594019011399  0.5000184753394066  0.2721323855596487  1.0000
  N   N30       1.0  0.958740597918146  1.847538510678647e-05  0.22786761382934914  1.0000
  N   N31       1.0  0.45874059780324916  0.4999815245691931  0.7278676141264928  1.0000
  N   N32       1.0  0.041259401786242954  0.9999815245234929  0.7721323858567923  1.0000
  O   O1        1.0  0.8628170362965928  0.25572489416562877  0.7033154709260442  1.0000
  O   O2        1.0  0.6371829641798606  0.7557248941199286  0.796684528999403  1.0000
  O   O3        1.0  0.1371829634077963  0.7442751067216955  0.2966845287600973  1.0000
  O   O4        1.0  0.36281703651748476  0.24427510578867104  0.20331547148139212  1.0000
  O   O5        1.0  0.9947461720895645  0.34105454617631475  0.05654066622014492  1.0000
  O   O6        1.0  0.5052538278758946  0.8410545461306146  0.44345933396569026  1.0000
  O   O7        1.0  0.005253827614824501  0.658945453732285  0.9434593334659966  1.0000
  O   O8        1.0  0.49474617197466764  0.1589454537779851  0.5565406665172885  1.0000
  O   O9        1.0  0.7242702876251764  0.4132122067772885  0.2973068937021348  1.0000
  O   O10       1.0  0.7757297121941095  0.9132122067315883  0.20269310568686302  1.0000
  O   O11       1.0  0.27572971292599596  0.5867877931313111  0.702693105981823  1.0000
  O   O12       1.0  0.2242702875102795  0.08678779317701134  0.7973068939992786  1.0000
  Cl  Cl1       1.0  0.22776431700406422  0.4462614840058883  0.023935084994912172  1.0000
  Cl  Cl2       1.0  0.27223568292121686  0.946261483960188  0.47606491524657724  1.0000
  Cl  Cl3       1.0  0.7722356835471081  0.5537385159027114  0.9760649146890455  1.0000
  Cl  Cl4       1.0  0.7277643169293453  0.05373851594841156  0.5239350852364015  1.0000
