data_image0
_chemical_formula_structural       H28C22N20O10Br4
_chemical_formula_sum              "H28 C22 N20 O10 Br4"
_cell_length_a       9.298465634967128
_cell_length_b       10.400926405159371
_cell_length_c       10.858578832195949
_cell_angle_alpha    113.12563012421786
_cell_angle_beta     95.33966516220669
_cell_angle_gamma    113.45060175653936

_space_group_name_H-M_alt    "P 1"
_space_group_IT_number       1

loop_
  _space_group_symop_operation_xyz
  'x, y, z'

loop_
  _atom_site_type_symbol
  _atom_site_label
  _atom_site_symmetry_multiplicity
  _atom_site_fract_x
  _atom_site_fract_y
  _atom_site_fract_z
  _atom_site_occupancy
  H   H1        1.0  0.07158479516053086  0.8865967256003223  0.8711983814263821  1.0000
  H   H2        1.0  0.9284152041882975  0.11340327353722635  0.12880161755523772  1.0000
  H   H3        1.0  0.1132549625666703  0.08594681990378765  0.9474685836404794  1.0000
  H   H4        1.0  0.886745037607694  0.9140531808397789  0.05253141639113377  1.0000
  H   H5        1.0  0.40363221164321444  0.4208502228336779  0.7827236862939743  1.0000
  H   H6        1.0  0.5963677896075503  0.5791497779107574  0.21727631374300924  1.0000
  H   H7        1.0  0.5108221108158355  0.3680012403092619  0.6643201640054857  1.0000
  H   H8        1.0  0.48917788888936115  0.6319987593853428  0.3356798360243456  1.0000
  H   H9        1.0  0.325953462727776  0.721458702798975  0.5263811420380208  1.0000
  H   H10       1.0  0.6740465369774209  0.2785412968956297  0.4736188579918104  1.0000
  H   H11       1.0  0.4486021887735888  0.862456091795427  0.4772909773393005  1.0000
  H   H12       1.0  0.5513978120080086  0.13754390790004659  0.522709022695901  1.0000
  H   H13       1.0  0.04707757357543577  0.4695120328293957  0.23797664296525  1.0000
  H   H14       1.0  0.952922426129761  0.5304879668652089  0.7620233570645811  1.0000
  H   H15       1.0  0.23319607561031871  0.3134154443098329  0.910632357401525  1.0000
  H   H16       1.0  0.7668039245640454  0.6865845564337336  0.08936764263008803  1.0000
  H   H17       1.0  0.14802883756178578  0.7270730746584002  0.25686887633709937  1.0000
  H   H18       1.0  0.8519711626125783  0.2729269260851663  0.7431311236945138  1.0000
  H   H19       1.0  0.07573705178922037  0.989444708328658  0.42910535849298337  1.0000
  H   H20       1.0  0.9242629479159766  0.010555291365946764  0.5708946415368479  1.0000
  H   H21       1.0  0.13586120766384727  0.4445451628495182  0.5616828114687302  1.0000
  H   H22       1.0  0.8641387925105168  0.5554548378940483  0.43831718856288276  1.0000
  H   H23       1.0  0.25254711348933206  0.023059004767192047  0.29301142642792366  1.0000
  H   H24       1.0  0.7474528866850322  0.9769409959763745  0.7069885736036895  1.0000
  H   H25       1.0  0.21136882804779605  0.6247349319442498  0.7675599606379457  1.0000
  H   H26       1.0  0.7886311721265681  0.37526506879931665  0.2324400393936674  1.0000
  H   H27       1.0  0.1643567823424241  0.716837048039905  0.6976906074843795  1.0000
  H   H28       1.0  0.8356432184391733  0.28316295165556854  0.3023093925508221  1.0000
  C   C1        1.0  0.21963113626149625  0.024081814507321914  0.7929323250973708  1.0000
  C   C2        1.0  0.7803688634437006  0.9759181851872827  0.20706767493246048  1.0000
  C   C3        1.0  0.33998172008299593  0.9428335691056722  0.6244143587646579  1.0000
  C   C4        1.0  0.6600182796222008  0.05716643058893238  0.3755856412651732  1.0000
  C   C5        1.0  0.3756437804043573  0.19629768062929065  0.7184780929783197  1.0000
  C   C6        1.0  0.6243562203772401  0.8037023190661828  0.28152190705688196  1.0000
  C   C7        1.0  0.13452369640927414  0.37524099575982456  0.07725125566637127  1.0000
  C   C8        1.0  0.86547630376509  0.6247590049837419  0.9227487443652418  1.0000
  C   C9        1.0  0.26084429772996504  0.5432632574402462  0.9710587885279374  1.0000
  C   C10       1.0  0.7391557019752318  0.45673674225435856  0.028941211501893906  1.0000
  C   C11       1.0  0.24253768477970228  0.6680312389630897  0.07804921690513393  1.0000
  C   C12       1.0  0.7574623153946619  0.33196876178047685  0.9219507831264793  1.0000
  C   C13       1.0  0.16891613717346166  0.6405584561329286  0.17456308406760565  1.0000
  C   C14       1.0  0.8310838630009024  0.3594415446106378  0.8254369159640074  1.0000
  C   C15       1.0  0.09157425946828085  0.2158998832374071  0.5110598631989758  1.0000
  C   C16       1.0  0.908425740236916  0.7841001164571976  0.48894013683085535  1.0000
  C   C17       1.0  0.2651662271241766  0.38709953325855195  0.4208423192727748  1.0000
  C   C18       1.0  0.7348337730501875  0.6129004674850145  0.5791576807588383  1.0000
  C   C19       1.0  0.3000914103834951  0.25955681104516126  0.34286339632765633  1.0000
  C   C20       1.0  0.6999085893217017  0.7404431886494435  0.657136603702175  1.0000
  C   C21       1.0  0.2302853174557783  0.12198269141383979  0.3505929438229409  1.0000
  C   C22       1.0  0.7697146822494186  0.878017308280765  0.6494070562068902  1.0000
  N   N1        1.0  0.12812431080929368  0.9957473324494235  0.8762851669126088  1.0000
  N   N2        1.0  0.8718756893650705  0.00425266829414306  0.12371483311900425  1.0000
  N   N3        1.0  0.4406733388670309  0.34125017105050887  0.7261908002319803  1.0000
  N   N4        1.0  0.5593266615581979  0.6587498280879085  0.2738091987550099  1.0000
  N   N5        1.0  0.3698706314470369  0.8319905454695186  0.5342849913137535  1.0000
  N   N6        1.0  0.6301293693345605  0.168009454225955  0.46571500872144805  1.0000
  N   N7        1.0  0.2807672387004985  0.1711940359438406  0.8026324070059346  1.0000
  N   N8        1.0  0.7192327617247304  0.8288059631945768  0.19736759198105566  1.0000
  N   N9        1.0  0.24374865590106393  0.9049339510393842  0.7042859097825978  1.0000
  N   N10       1.0  0.7562513442733001  0.09506604970418231  0.2957140902490153  1.0000
  N   N11       1.0  0.4093066180528084  0.08703440522549534  0.6286424385797347  1.0000
  N   N12       1.0  0.5906933821215558  0.9129655955180711  0.3713575614518785  1.0000
  N   N13       1.0  0.11427442232292527  0.49668854593981976  0.17190268607665513  1.0000
  N   N14       1.0  0.8857255773822715  0.5033114537547849  0.8280973139531761  1.0000
  N   N15       1.0  0.21077101324429595  0.4052023494894639  0.9819624573718754  1.0000
  N   N16       1.0  0.7892289875373014  0.5947976502060097  0.018037542663326127  1.0000
  N   N17       1.0  0.12791904306341906  0.10010307624455309  0.4304009755221331  1.0000
  N   N18       1.0  0.8720809571109451  0.8998969244990135  0.5695990245094801  1.0000
  N   N19       1.0  0.15974172315246027  0.35349373026557557  0.5001823731347027  1.0000
  N   N20       1.0  0.8402582765527365  0.6465062694290291  0.4998176268951285  1.0000
  O   O1        1.0  0.08411134502926727  0.2450508400742029  0.07691263316951692  1.0000
  O   O2        1.0  0.9158886551450968  0.7549491606693636  0.9230873668620962  1.0000
  O   O3        1.0  0.3155854099193644  0.5535153009519056  0.8723828462578792  1.0000
  O   O4        1.0  0.6844145908622329  0.44648469874356794  0.1276171537773224  1.0000
  O   O5        1.0  0.002709174125697245  0.19687899438192197  0.588688037919325  1.0000
  O   O6        1.0  0.9972908255794996  0.8031210053126827  0.4113119621105062  1.0000
  O   O7        1.0  0.3205898036677407  0.5177908760967428  0.42132585719339305  1.0000
  O   O8        1.0  0.6794101971138566  0.48220912359873075  0.5786741428418085  1.0000
  O   O9        1.0  0.12412692339504992  0.6093996648106207  0.6958982481672389  1.0000
  O   O10       1.0  0.8758730773865474  0.39060033488485285  0.30410175186796273  1.0000
  Br  Br1       1.0  0.3243016789340143  0.8639566163458866  0.0753349034795411  1.0000
  Br  Br2       1.0  0.675698321847583  0.1360433833495869  0.9246650965556604  1.0000
  Br  Br3       1.0  0.4391442427948337  0.28623988746158713  0.23025373341803881  1.0000
  Br  Br4       1.0  0.560855756910363  0.7137601122330175  0.7697462666117924  1.0000
