data_image0
_chemical_formula_structural       H44C48N12S4
_chemical_formula_sum              "H44 C48 N12 S4"
_cell_length_a       3.8047321543452473
_cell_length_b       10.28845730902286
_cell_length_c       27.048492619795493
_cell_angle_alpha    90.0
_cell_angle_beta     91.98329667468636
_cell_angle_gamma    90.0

_space_group_name_H-M_alt    "P 1"
_space_group_IT_number       1

loop_
  _space_group_symop_operation_xyz
  'x, y, z'

loop_
  _atom_site_type_symbol
  _atom_site_label
  _atom_site_symmetry_multiplicity
  _atom_site_fract_x
  _atom_site_fract_y
  _atom_site_fract_z
  _atom_site_occupancy
  H   H1        1.0  0.044269482301028305  0.08678797444364417  0.3723017041605521  1.0000
  H   H2        1.0  0.9557305191531119  0.5867879740051499  0.12769829580196387  1.0000
  H   H3        1.0  0.955730519089889  0.9132120256513303  0.6276982958947217  1.0000
  H   H4        1.0  0.04426948223780553  0.41321202608982455  0.8723017042533099  1.0000
  H   H5        1.0  0.3893738511036751  0.5235930089611873  0.3626195729284271  1.0000
  H   H6        1.0  0.6106261503504651  0.023593009399681678  0.13738042703408884  1.0000
  H   H7        1.0  0.6106261502872422  0.4764069911337871  0.6373804271268466  1.0000
  H   H8        1.0  0.3893738510404523  0.9764069906952928  0.862619573021185  1.0000
  H   H9        1.0  0.4560747807291944  0.32623254577306254  0.2574346647740043  1.0000
  H   H10       1.0  0.5439252207249458  0.8262325463065312  0.24256533518851167  1.0000
  H   H11       1.0  0.5439252206617229  0.6737674533499489  0.7425653352812694  1.0000
  H   H12       1.0  0.4560747806659716  0.17376745378844316  0.7574346648667619  1.0000
  H   H13       1.0  0.277786798127059  0.15246320832029364  0.19658509015430942  1.0000
  H   H14       1.0  0.7222132006972183  0.6524632088537623  0.30341490979402164  1.0000
  H   H15       1.0  0.7222132006339955  0.8475367908027178  0.8034149098867794  1.0000
  H   H16       1.0  0.2777867980638361  0.34753679124121206  0.6965850902470672  1.0000
  H   H17       1.0  0.1730877243995024  0.46304028649873996  0.307777938870158  1.0000
  H   H18       1.0  0.8269122744247748  0.9630402860602456  0.192222061078173  1.0000
  H   H19       1.0  0.8269122743615519  0.5369597135962345  0.6922220611709308  1.0000
  H   H20       1.0  0.17308772433627959  0.036959714034728766  0.8077779389629158  1.0000
  H   H21       1.0  0.880835292431303  0.9224979435620957  0.3072067587871662  1.0000
  H   H22       1.0  0.11916470639297422  0.4224979440005899  0.19279324116116486  1.0000
  H   H23       1.0  0.11916470632975144  0.07750205653287882  0.6927932412539226  1.0000
  H   H24       1.0  0.8808352923680802  0.5775020560943845  0.8072067588799239  1.0000
  H   H25       1.0  0.6035755058639997  0.9880042444347197  0.4155654296687918  1.0000
  H   H26       1.0  0.3964244929602775  0.488004243901251  0.08443457027953927  1.0000
  H   H27       1.0  0.3964244928970548  0.01199575566025472  0.5844345703722971  1.0000
  H   H28       1.0  0.6035755058007769  0.5119957561937234  0.9155654297615495  1.0000
  H   H29       1.0  0.3863017477500781  0.8221213040930941  0.3557411227150374  1.0000
  H   H30       1.0  0.6136982537040621  0.3221213045315885  0.1442588772474786  1.0000
  H   H31       1.0  0.6136982536408393  0.17787869600188025  0.6442588773402362  1.0000
  H   H32       1.0  0.3863017476868553  0.677878695563386  0.8557411228077951  1.0000
  H   H33       1.0  0.8124994285187465  0.5201653162623926  0.4390674798761006  1.0000
  H   H34       1.0  0.1875005729353937  0.020165315728923827  0.06093252008641541  1.0000
  H   H35       1.0  0.18750057287217095  0.4798346838325819  0.5609325201791732  1.0000
  H   H36       1.0  0.8124994284555237  0.9798346833940875  0.9390674799688583  1.0000
  H   H37       1.0  0.050039759695725036  0.674051709765868  0.5039077867681916  1.0000
  H   H38       1.0  0.9499602390021066  0.1740517092323993  0.996092213365655  1.0000
  H   H39       1.0  0.9499602390653294  0.32594829032910644  0.49609221327289715  1.0000
  H   H40       1.0  0.05003975975894781  0.8259482908625752  0.003907786675433782  1.0000
  H   H41       1.0  0.12141861700201718  0.88833859202435  0.5347708547265628  1.0000
  H   H42       1.0  0.8785813816958145  0.3883385924628443  0.9652291454072838  1.0000
  H   H43       1.0  0.8785813817590373  0.11166140807062444  0.46522914531452597  1.0000
  H   H44       1.0  0.12141861706523996  0.6116614076321302  0.034770854633805  1.0000
  C   C1        1.0  0.2554899483624883  0.2208623549428727  0.3198369755143327  1.0000
  C   C2        1.0  0.7445100504519543  0.7208623554763415  0.18016302480365423  1.0000
  C   C3        1.0  0.7445100503985661  0.7791376451521018  0.6801630245267561  1.0000
  C   C4        1.0  0.2554899483091  0.27913764461863294  0.8198369752374346  1.0000
  C   C5        1.0  0.35027543040083686  0.32313525343438965  0.35699719394254276  1.0000
  C   C6        1.0  0.6497245710533033  0.8231352539678582  0.14300280601997323  1.0000
  C   C7        1.0  0.6497245709900804  0.6768647466605848  0.643002806112731  1.0000
  C   C8        1.0  0.3502754303376141  0.17686474612711608  0.8569971940353006  1.0000
  C   C9        1.0  0.0996259821060203  0.10380774472994678  0.3336539548087999  1.0000
  C   C10       1.0  0.9003740167084223  0.6038077452634154  0.1663460455091871  1.0000
  C   C11       1.0  0.9003740166550341  0.8961922553650278  0.6663460452322889  1.0000
  C   C12       1.0  0.09962598205263204  0.396192254831559  0.8336539545319017  1.0000
  C   C13       1.0  0.32322289846187  0.23872506793083714  0.26967768384755164  1.0000
  C   C14       1.0  0.6767771029922701  0.7387250684643059  0.23032231611496434  1.0000
  C   C15       1.0  0.6767771029290474  0.7612749311921743  0.730322316207722  1.0000
  C   C16       1.0  0.32322289839864726  0.26127493163066856  0.7696776839403094  1.0000
  C   C17       1.0  0.010100868298879578  0.013140425813055159  0.2972530872169908  1.0000
  C   C18       1.0  0.9898991305155631  0.5131404263465239  0.2027469131009961  1.0000
  C   C19       1.0  0.9898991304621748  0.9868595742819193  0.702746912824098  1.0000
  C   C20       1.0  0.01010086824549132  0.48685957374845057  0.7972530869400927  1.0000
  C   C21       1.0  0.22771839127646673  0.1415766626861127  0.23595266863449332  1.0000
  C   C22       1.0  0.7722816101776734  0.6415766622476184  0.26404733132802266  1.0000
  C   C23       1.0  0.7722816101144506  0.8584233374088618  0.7640473314207804  1.0000
  C   C24       1.0  0.22771839121324391  0.358423336875393  0.7359526687272511  1.0000
  C   C25       1.0  0.8541714271094477  0.8452173964286873  0.46506528638485184  1.0000
  C   C26       1.0  0.14582857171482944  0.3452173958952186  0.03493471356347923  1.0000
  C   C27       1.0  0.14582857165160665  0.1547826036662871  0.534934713656237  1.0000
  C   C28       1.0  0.8541714270462251  0.6547826041997559  0.9650652864776096  1.0000
  C   C29       1.0  7.555149406952796e-05  0.9345492478806997  0.5020327309983267  1.0000
  C   C30       1.0  0.9999244472037622  0.43454924831919395  0.9979672691355199  1.0000
  C   C31       1.0  0.9999244472669849  0.06545075221427483  0.4979672690427621  1.0000
  C   C32       1.0  7.555155729230353e-05  0.5654507517757805  0.0020327309055689006  1.0000
  C   C33       1.0  0.6629999365779072  0.8856135712405818  0.42219505875335445  1.0000
  C   C34       1.0  0.33700006487623285  0.38561357167907606  0.07780494120916155  1.0000
  C   C35       1.0  0.3370000648130101  0.1143864278824297  0.5778049413019193  1.0000
  C   C36       1.0  0.6629999365146844  0.6143864284158984  0.9221950588461123  1.0000
  C   C37       1.0  0.5406018598311502  0.7926809642148926  0.38870292659146694  1.0000
  C   C38       1.0  0.45939814162299  0.29268096368142393  0.11129707337104908  1.0000
  C   C39       1.0  0.45939814155976727  0.2073190358800818  0.6112970734638069  1.0000
  C   C40       1.0  0.5406018597679273  0.7073190364135505  0.8887029266842248  1.0000
  C   C41       1.0  0.905630651109584  0.7107647288954457  0.47127839990536974  1.0000
  C   C42       1.0  0.09436934771469317  0.21076472836197702  0.028721600042961294  1.0000
  C   C43       1.0  0.09436934766130492  0.2892352711995287  0.5287215997660631  1.0000
  C   C44       1.0  0.9056306510463613  0.7892352717329973  0.9712783999981275  1.0000
  C   C45       1.0  0.7755958188329682  0.6250667934793401  0.4353634007932829  1.0000
  C   C46       1.0  0.22440418262117184  0.1250667939178345  0.06463659916923307  1.0000
  C   C47       1.0  0.22440418256778358  0.37493320661563423  0.564636598892335  1.0000
  C   C48       1.0  0.7755958187697455  0.87493320617714  0.9353634008860408  1.0000
  N   N1        1.0  0.3011240471634243  0.44452267260604117  0.3415170433302373  1.0000
  N   N2        1.0  0.6988759542907159  0.9445226721675469  0.1584829566322787  1.0000
  N   N3        1.0  0.698875954227493  0.5554773274889333  0.6584829567250365  1.0000
  N   N4        1.0  0.30112404711003604  0.05547732792742755  0.8415170430533392  1.0000
  N   N5        1.0  0.06962275801518555  0.030491829880547446  0.2489565930542217  1.0000
  N   N6        1.0  0.9303772407992571  0.5304918304140162  0.2510434072637653  1.0000
  N   N7        1.0  0.9303772407458689  0.969508169242464  0.7510434069868671  1.0000
  N   N8        1.0  0.06962275796179729  0.46950816968095826  0.7489565927773236  1.0000
  N   N9        1.0  0.5948449839072205  0.6641072733040213  0.3944341326995613  1.0000
  N   N10       1.0  0.4051550149072221  0.16410727374251563  0.10556586761842562  1.0000
  N   N11       1.0  0.40515501485383393  0.3358927267909531  0.6055658673415275  1.0000
  N   N12       1.0  0.5948449838538322  0.8358927263524588  0.8944341324226632  1.0000
  S   S1        1.0  0.5155111950026959  0.28055888490381903  0.4127374666166461  1.0000
  S   S2        1.0  0.4844888038215813  0.7805588854372878  0.08726253333168485  1.0000
  S   S3        1.0  0.48448880375835857  0.7194411151911554  0.5872625334244427  1.0000
  S   S4        1.0  0.5155111949394731  0.2194411146576867  0.912737466709404  1.0000
