data_image0
_chemical_formula_structural       H24C60O18
_chemical_formula_sum              "H24 C60 O18"
_cell_length_a       6.946292135058306
_cell_length_b       9.103847693531392
_cell_length_c       16.555973355908517
_cell_angle_alpha    90.0
_cell_angle_beta     98.2765539174603
_cell_angle_gamma    90.0

_space_group_name_H-M_alt    "P 1"
_space_group_IT_number       1

loop_
  _space_group_symop_operation_xyz
  'x, y, z'

loop_
  _atom_site_type_symbol
  _atom_site_label
  _atom_site_symmetry_multiplicity
  _atom_site_fract_x
  _atom_site_fract_y
  _atom_site_fract_z
  _atom_site_occupancy
  H   H1        1.0  0.2914997459987382  0.06304860860181533  0.5455027331893111  1.0000
  H   H2        1.0  0.29149974483173785  0.9369513910102836  0.045502732880365986  1.0000
  H   H3        1.0  0.3062518454632123  0.28316808966737256  0.4618697135363814  1.0000
  H   H4        1.0  0.3062518451754569  0.7168319099447263  0.9618697137549154  1.0000
  H   H5        1.0  0.17185313839405478  0.27797944508651434  0.31392152332412715  1.0000
  H   H6        1.0  0.17185313810629924  0.7220205545255846  0.8139215235426611  1.0000
  H   H7        1.0  0.02763526942845982  0.05379087683419309  0.2510446835716829  1.0000
  H   H8        1.0  0.027635270595460042  0.9462091227779057  0.7510446838806281  1.0000
  H   H9        1.0  0.9071552593078397  0.8809906591142537  0.20296942625805395  1.0000
  H   H10       1.0  0.907155259026222  0.11900934159628183  0.7029694258729524  1.0000
  H   H11       1.0  0.7580452474100333  0.6571611994619504  0.1420776393762766  1.0000
  H   H12       1.0  0.7580452471222778  0.3428388012485852  0.6420776395948107  1.0000
  H   H13       1.0  0.7459147301657006  0.4304931169690691  0.22707707661590326  1.0000
  H   H14       1.0  0.7459147298840831  0.5695068826430297  0.7270770762308019  1.0000
  H   H15       1.0  0.8830137288290685  0.43355156774036047  0.37121258466539514  1.0000
  H   H16       1.0  0.8830137299960686  0.5664484318717384  0.8712125849743403  1.0000
  H   H17       1.0  0.0014923045291610475  0.4315761579350341  0.4813844925460881  1.0000
  H   H18       1.0  0.0014923042414055163  0.5684238427755014  0.9813844927646223  1.0000
  H   H19       1.0  0.14417238775762023  0.4329063811997098  0.6247360636784802  1.0000
  H   H20       1.0  0.1441723880392378  0.567093618412389  0.1247360640635818  1.0000
  H   H21       1.0  0.29958308117879  0.6607702987248198  0.6881884969135581  1.0000
  H   H22       1.0  0.2995830814604075  0.3392297008872791  0.18818849729865966  1.0000
  H   H23       1.0  0.2997988016511408  0.8859279264668191  0.6086145867242941  1.0000
  H   H24       1.0  0.2997988004841406  0.11407207314527981  0.10861458641534898  1.0000
  C   C1        1.0  0.5862881060100825  0.7227894096553747  0.4531361151319214  1.0000
  C   C2        1.0  0.5862881057284649  0.2772105899567242  0.9531361147468199  1.0000
  C   C3        1.0  0.6661588842323604  0.8536235426611712  0.48759049666478  1.0000
  C   C4        1.0  0.6661588839507429  0.14637645695092766  0.9875904962796784  1.0000
  C   C5        1.0  0.6659281420565702  0.9798859998875529  0.43991514987666164  1.0000
  C   C6        1.0  0.6659281417688149  0.02011399972454609  0.9399151500951958  1.0000
  C   C7        1.0  0.588619711179516  0.9757707069629337  0.35693994995596745  1.0000
  C   C8        1.0  0.5886197108917605  0.024229292649165228  0.8569399501745014  1.0000
  C   C9        1.0  0.5112386349095781  0.8451680024773547  0.322452956784194  1.0000
  C   C10       1.0  0.5112386360827164  0.15483199823318083  0.8224529564895036  1.0000
  C   C11       1.0  0.5100547495578929  0.7181768017324811  0.37058450307588964  1.0000
  C   C12       1.0  0.5100547492701374  0.28182319787961785  0.8705845032944237  1.0000
  C   C13       1.0  0.6071333843429307  0.6093420119431033  0.5184835814249363  1.0000
  C   C14       1.0  0.6071333846306864  0.3906579887674322  0.018483581206402235  1.0000
  C   C15       1.0  0.7391228259739069  0.8253568131789935  0.5748573267707984  1.0000
  C   C16       1.0  0.7391228262616623  0.17464318643310545  0.07485732655226429  1.0000
  C   C17       1.0  0.7367322384722869  0.13156990651887487  0.45966922275758987  1.0000
  C   C18       1.0  0.736732239639287  0.868430093093224  0.9596692230665349  1.0000
  C   C19       1.0  0.6109997178060211  0.12419915381530335  0.3222889531010411  1.0000
  C   C20       1.0  0.6109997175182657  0.8758008457967956  0.8222889533195751  1.0000
  C   C21       1.0  0.4170552221080639  0.8080221635547329  0.23875753919377823  1.0000
  C   C22       1.0  0.4170552232750641  0.19197783605736607  0.7387575395027233  1.0000
  C   C23       1.0  0.4165917231178094  0.5991456715467283  0.31801700994653537  1.0000
  C   C24       1.0  0.41659172283619195  0.40085432916380725  0.8180170095614339  1.0000
  C   C25       1.0  0.1543389903595473  0.9245735268594952  0.4465526545642157  1.0000
  C   C26       1.0  0.15433899152654754  0.07542647275260374  0.9465526548731608  1.0000
  C   C27       1.0  0.07660751060828835  0.9224322860724979  0.36186921646724945  1.0000
  C   C28       1.0  0.07660751032667082  0.07756771353960096  0.861869216082148  1.0000
  C   C29       1.0  0.9893152719111592  0.7884464625984627  0.3246065199496596  1.0000
  C   C30       1.0  0.9893152716295417  0.21155353811207284  0.8246065195645582  1.0000
  C   C31       1.0  0.9836690907864313  0.6595525916219344  0.372687481559649  1.0000
  C   C32       1.0  0.9836690904986759  0.3404474079901645  0.8726874817781831  1.0000
  C   C33       1.0  0.06751158575218273  0.6601766090913871  0.4587364926689341  1.0000
  C   C34       1.0  0.06751158547056518  0.3398233916191485  0.9587364922838326  1.0000
  C   C35       1.0  0.1519872998847783  0.7914352307452907  0.49535145421037957  1.0000
  C   C36       1.0  0.15198730105177857  0.2085647699652449  0.9953514545193246  1.0000
  C   C37       1.0  0.23478304056120936  0.057095061066248454  0.48091203158036583  1.0000
  C   C38       1.0  0.2347830402734538  0.9429049396442872  0.9809120317988997  1.0000
  C   C39       1.0  0.24141341280601097  0.18283565213669953  0.4342153551894923  1.0000
  C   C40       1.0  0.24141341251825543  0.817164348573836  0.9342153554080265  1.0000
  C   C41       1.0  0.16624950629980986  0.1798340531513149  0.35087447836512026  1.0000
  C   C42       1.0  0.16624950601819236  0.8201659475592207  0.8508744779800187  1.0000
  C   C43       1.0  0.08538014317583136  0.051980913557708584  0.31560329341295895  1.0000
  C   C44       1.0  0.08538014288807584  0.9480190860543903  0.815603293631493  1.0000
  C   C45       1.0  0.9058162930643711  0.7841988102538968  0.24143089833483652  1.0000
  C   C46       1.0  0.9058162927827536  0.21580118935820217  0.7414308979497352  1.0000
  C   C47       1.0  0.8205688093743216  0.6572824196357878  0.2063151969252535  1.0000
  C   C48       1.0  0.8205688090865662  0.3427175799763111  0.7063151971437875  1.0000
  C   C49       1.0  0.8139441346523371  0.5304340101637651  0.2538575020578901  1.0000
  C   C50       1.0  0.8139441343645815  0.46956598944833383  0.7538575022764242  1.0000
  C   C51       1.0  0.8932033968591376  0.532692605726014  0.33561532942992855  1.0000
  C   C52       1.0  0.89320339657752  0.4673073938860849  0.835615329044827  1.0000
  C   C53       1.0  0.066516576068305  0.5327448440779734  0.5072664091900367  1.0000
  C   C54       1.0  0.06651657635606052  0.46725515553412544  0.007266408971502694  1.0000
  C   C55       1.0  0.14680600912459194  0.5325747863120577  0.5887206216733956  1.0000
  C   C56       1.0  0.14680600795759174  0.4674252133000413  0.08872062136445055  1.0000
  C   C57       1.0  0.23233642848620878  0.6608527298050908  0.6246114730843358  1.0000
  C   C58       1.0  0.23233642877396435  0.33914726980700816  0.12461147286580176  1.0000
  C   C59       1.0  0.23410715594854417  0.7878485308026718  0.5787200707979954  1.0000
  C   C60       1.0  0.23410715623016173  0.21215146990786374  0.07872007118309693  1.0000
  O   O1        1.0  0.5609442129757495  0.48189836843571227  0.5177243862952997  1.0000
  O   O2        1.0  0.5609442132635051  0.5181016311763866  0.0177243860767656  1.0000
  O   O3        1.0  0.6999211925165464  0.6775387130413806  0.5897659223478646  1.0000
  O   O4        1.0  0.6999211928043019  0.3224612865707184  0.08976592212933066  1.0000
  O   O5        1.0  0.818390149597501  0.9046603070756438  0.6275708530210516  1.0000
  O   O6        1.0  0.8183901484243629  0.09533969253645522  0.12757085331574206  1.0000
  O   O7        1.0  0.8126772494645842  0.18641473442112216  0.5224068240272152  1.0000
  O   O8        1.0  0.8126772497523399  0.8135852662894134  0.022406823808681083  1.0000
  O   O9        1.0  0.7001518805139256  0.21249725996345056  0.38697054193058406  1.0000
  O   O10       1.0  0.700151880232308  0.7875027396486484  0.8869705415454826  1.0000
  O   O11       1.0  0.5705882476378584  0.17204413811897204  0.2542392597098485  1.0000
  O   O12       1.0  0.5705882473501028  0.8279558614931269  0.7542392599283826  1.0000
  O   O13       1.0  0.37999235898025413  0.8820415147878167  0.17819628420385245  1.0000
  O   O14       1.0  0.37999235869249864  0.11795848592271893  0.6781962844223864  1.0000
  O   O15       1.0  0.3650421346003247  0.6594390637999856  0.23956222366876917  1.0000
  O   O16       1.0  0.3650421343187071  0.3405609358121133  0.7395622232836676  1.0000
  O   O17       1.0  0.38095904178089457  0.47330093989397454  0.33235090093726677  1.0000
  O   O18       1.0  0.3809590429478949  0.5266990597181244  0.8323509012462119  1.0000
