data_image0
_chemical_formula_structural       H56C40N4O10F12P2
_chemical_formula_sum              "H56 C40 N4 O10 F12 P2"
_cell_length_a       8.443550994245431
_cell_length_b       11.631337920964011
_cell_length_c       12.178299225736813
_cell_angle_alpha    83.75821821540887
_cell_angle_beta     73.82146742537941
_cell_angle_gamma    83.72557204539099

_space_group_name_H-M_alt    "P 1"
_space_group_IT_number       1

loop_
  _space_group_symop_operation_xyz
  'x, y, z'

loop_
  _atom_site_type_symbol
  _atom_site_label
  _atom_site_symmetry_multiplicity
  _atom_site_fract_x
  _atom_site_fract_y
  _atom_site_fract_z
  _atom_site_occupancy
  H   H1        1.0  0.20270899433905304  0.26735018825693607  0.8180942248340444  1.0000
  H   H2        1.0  0.7972910052660608  0.7326498111714927  0.18190577533521674  1.0000
  H   H3        1.0  0.07405508024151618  0.42225886921000105  0.9457808616394101  1.0000
  H   H4        1.0  0.9259449193635977  0.5777411302184275  0.05421913852985107  1.0000
  H   H5        1.0  0.27641167434447034  0.23992579308622547  0.21094021265274843  1.0000
  H   H6        1.0  0.7235883251301989  0.7600742072074324  0.7890597875127626  1.0000
  H   H7        1.0  0.4059075546453693  0.08539065315229522  0.08172659977367785  1.0000
  H   H8        1.0  0.5940924461444437  0.914609346277478  0.9182734003941689  1.0000
  H   H9        1.0  0.4533994771487214  0.19167467609699163  0.7276477772571521  1.0000
  H   H10       1.0  0.5466005224563926  0.8083253233314369  0.272352222912109  1.0000
  H   H11       1.0  0.32293992895110796  0.08225937089499913  0.7250342861610604  1.0000
  H   H12       1.0  0.6770600717082603  0.9177406294000036  0.27496571400303654  1.0000
  H   H13       1.0  0.5649244793981448  0.9322352973996373  0.7306335972915006  1.0000
  H   H14       1.0  0.4350755200765244  0.06776470289402063  0.26936640287401076  1.0000
  H   H15       1.0  0.5980995425668264  0.031011472434843472  0.6056812816132422  1.0000
  H   H16       1.0  0.40190045703828753  0.9689885269935851  0.39431871855601885  1.0000
  H   H17       1.0  0.8913867552133543  0.031151815537990752  0.5705842170539379  1.0000
  H   H18       1.0  0.1086132443917597  0.9688481838904378  0.42941578311532325  1.0000
  H   H19       1.0  0.8641803644528632  0.9083592848082558  0.6734335413682158  1.0000
  H   H20       1.0  0.1358196362065052  0.09164071548674692  0.326566458795881  1.0000
  H   H21       1.0  0.9883894219254024  0.998076477592784  0.7982828604188568  1.0000
  H   H22       1.0  0.011610578733965916  0.001923522702218785  0.20171713974524005  1.0000
  H   H23       1.0  0.1272554412037462  0.9883390299309669  0.6586462341002947  1.0000
  H   H24       1.0  0.8727445594556221  0.011660970364035878  0.3413537660638021  1.0000
  H   H25       1.0  0.951449384947527  0.22280716665138484  0.5603432859898989  1.0000
  H   H26       1.0  0.04855061465758686  0.7771928327770438  0.43965671417936225  1.0000
  H   H27       1.0  0.15947338765045582  0.15814368930683115  0.5342254417911558  1.0000
  H   H28       1.0  0.8405266118242136  0.8418563109868267  0.4657745583743553  1.0000
  H   H29       1.0  0.8259159426588418  0.6371722694243437  0.49434260595677093  1.0000
  H   H30       1.0  0.17408405813097114  0.36282773000542967  0.5056573942110758  1.0000
  H   H31       1.0  0.7669237082940775  0.6871331713583059  0.3676607732734765  1.0000
  H   H32       1.0  0.23307629118059184  0.3128668289353521  0.6323392268920347  1.0000
  H   H33       1.0  0.8285166279810915  0.5010042857461593  0.3051728884041048  1.0000
  H   H34       1.0  0.17148337301094582  0.4989957146162158  0.6948271109021208  1.0000
  H   H35       1.0  0.8890938649440427  0.45072850600656966  0.4316279202290952  1.0000
  H   H36       1.0  0.11090613466107134  0.549271493421859  0.5683720799401659  1.0000
  H   H37       1.0  0.1827173864138962  0.40490725848035825  0.29725578973418126  1.0000
  H   H38       1.0  0.8172826142454721  0.5950927418146446  0.7027442104299155  1.0000
  H   H39       1.0  0.021099828853662878  0.31568438826165046  0.30217658709736533  1.0000
  H   H40       1.0  0.978900172268819  0.6843156112354952  0.6978234122126106  1.0000
  H   H41       1.0  0.1419522943577416  0.8477418479331625  0.03412878150889757  1.0000
  H   H42       1.0  0.8580477067647402  0.15225815156398315  0.9658712178010783  1.0000
  H   H43       1.0  0.15708565051432796  0.7455279036128014  0.9315316480234814  1.0000
  H   H44       1.0  0.8429143492930102  0.25447209674822885  0.06846835128415867  1.0000
  H   H45       1.0  0.3233107657110374  0.8350647182143653  0.9157620893031916  1.0000
  H   H46       1.0  0.6766892349483308  0.1649352820806373  0.0842379108609052  1.0000
  H   H47       1.0  0.22290192255889815  0.7737462037588814  0.21080243126455686  1.0000
  H   H48       1.0  0.777098076915771  0.22625379653477642  0.7891975689009544  1.0000
  H   H49       1.0  0.33297826236571193  0.6594708604135886  0.3632567974984874  1.0000
  H   H50       1.0  0.6670217371089574  0.3405291398800694  0.6367432026670238  1.0000
  H   H51       1.0  0.5364778296324793  0.5929526447686484  0.3059824383619191  1.0000
  H   H52       1.0  0.46352216997263473  0.40704735465978015  0.6940175618073421  1.0000
  H   H53       1.0  0.36450703780607807  0.5071365757967096  0.3470775027653954  1.0000
  H   H54       1.0  0.6354929617990358  0.49286342363171903  0.6529224974038658  1.0000
  H   H55       1.0  0.5954288111660545  0.40047806526472784  0.17099071471041483  1.0000
  H   H56       1.0  0.4045711883086148  0.59952193502893  0.8290092854550963  1.0000
  C   C1        1.0  0.31700766563650157  0.16750328444039736  0.9411544794519435  1.0000
  C   C2        1.0  0.6829923354859803  0.8324967150567484  0.05884551985803231  1.0000
  C   C3        1.0  0.22298884020035223  0.2624097463390101  0.9029190835933567  1.0000
  C   C4        1.0  0.7770111592743171  0.7375902539546478  0.09708091657215452  1.0000
  C   C5        1.0  0.14750599912286957  0.3490355478294943  0.9759402354864605  1.0000
  C   C6        1.0  0.8524940019996122  0.6509644516676514  0.02405976382351533  1.0000
  C   C7        1.0  0.16346071011882446  0.34113763681622417  0.0878614962916902  1.0000
  C   C8        1.0  0.8365392905405439  0.6588623634787786  0.9121385038724066  1.0000
  C   C9        1.0  0.257178615301094  0.2459103023714638  0.1258728308076496  1.0000
  C   C10       1.0  0.7428213853582742  0.754089697923539  0.8741271693564471  1.0000
  C   C11       1.0  0.3329482895172859  0.1597115748279886  0.05297502889690862  1.0000
  C   C12       1.0  0.6670517112725269  0.8402884246017848  0.9470249712709382  1.0000
  C   C13       1.0  0.4296630600737216  0.10021785938710873  0.753416223713076  1.0000
  C   C14       1.0  0.5703369405856467  0.899782140907894  0.24658377645102084  1.0000
  C   C15       1.0  0.5805927792868368  0.023777790769695856  0.6991099892610135  1.0000
  C   C16       1.0  0.4194072203182771  0.9762222086587329  0.3008900109082477  1.0000
  C   C17       1.0  0.8703730263844573  0.0035740699897566517  0.6629063344167693  1.0000
  C   C18       1.0  0.129626973090212  0.9964259303039013  0.33709366574874194  1.0000
  C   C19       1.0  0.010345890175217877  0.03153457780506876  0.7078532104491484  1.0000
  C   C20       1.0  0.9896541092994516  0.968465422488589  0.2921467897163627  1.0000
  C   C21       1.0  0.062118905808502316  0.21058672204162726  0.5930000779744983  1.0000
  C   C22       1.0  0.937881093998836  0.789413278319403  0.4069999213331419  1.0000
  C   C23       1.0  0.8731637904471  0.6743624266378643  0.40508502156021864  1.0000
  C   C24       1.0  0.1268362090275692  0.32563757365579377  0.5949149786052925  1.0000
  C   C25       1.0  0.9347967278644242  0.48838671491050706  0.34235092872449074  1.0000
  C   C26       1.0  0.06520327279494417  0.5116132853844956  0.657649071439606  1.0000
  C   C27       1.0  0.0639404624709016  0.4031508726642827  0.2766555740451114  1.0000
  C   C28       1.0  0.9360595383189114  0.5968491267654907  0.7233444261227354  1.0000
  C   C29       1.0  0.39993133792108176  0.6007922793176923  0.00874150794351864  1.0000
  C   C30       1.0  0.6000686618862565  0.399207721043338  0.9912584913641214  1.0000
  C   C31       1.0  0.2264956262409333  0.7876063237283201  0.9774602145556133  1.0000
  C   C32       1.0  0.7735043745488795  0.21239367570145326  0.022539785612233444  1.0000
  C   C33       1.0  0.2932399408413939  0.705500126969168  0.15831424673040267  1.0000
  C   C34       1.0  0.70676005876372  0.29449987245926074  0.8416857534388584  1.0000
  C   C35       1.0  0.4052975982622795  0.5923862122960505  0.3096512563492031  1.0000
  C   C36       1.0  0.5947024027297577  0.4076137880663246  0.6903487429570225  1.0000
  C   C37       1.0  0.4532027580601748  0.5457598172419869  0.10376780278353183  1.0000
  C   C38       1.0  0.5467972429318624  0.4542401831203881  0.8962321965226938  1.0000
  C   C39       1.0  0.5551754605997137  0.44304354629346687  0.09839842368917834  1.0000
  C   C40       1.0  0.44482453900540037  0.5569564531349618  0.9016015764800828  1.0000
  N   N1        1.0  0.3010594941506457  0.7002361166700038  0.04742935468519566  1.0000
  N   N2        1.0  0.6989405065087226  0.29976388362499884  0.9525706454789011  1.0000
  N   N3        1.0  0.38341890107667254  0.6148951910732673  0.1945927482137223  1.0000
  N   N4        1.0  0.6165810987306659  0.3851048092877629  0.8054072510939179  1.0000
  O   O1        1.0  0.3967786693038684  0.07868691199788216  0.8758412602473371  1.0000
  O   O2        1.0  0.603221330170801  0.9213130882957757  0.12415873991817394  1.0000
  O   O3        1.0  0.7205612127903461  0.060676662383657286  0.7259315164392466  1.0000
  O   O4        1.0  0.27943878668432326  0.9393233379100007  0.27406848372626463  1.0000
  O   O5        1.0  0.024251304684028172  0.15339599210287339  0.7064792720245412  1.0000
  O   O6        1.0  0.9757486952537546  0.8466040073929275  0.29352072728684897  1.0000
  O   O7        1.0  0.9998474844182866  0.596709165056337  0.3417985110789136  1.0000
  O   O8        1.0  0.00015251538905153848  0.40329083530469334  0.6582014882287266  1.0000
  O   O9        1.0  0.08464210853968278  0.4290483997700155  0.15555776685695996  1.0000
  O   O10       1.0  0.9153578910654312  0.5709515996584131  0.8444422333123013  1.0000
  F   F1        1.0  0.3504297850434781  0.8689350334284223  0.6640762108718712  1.0000
  F   F2        1.0  0.64957021561589  0.13106496686658045  0.3359237892922256  1.0000
  F   F3        1.0  0.27873992869568903  0.6811366129305079  0.7134833436400203  1.0000
  F   F4        1.0  0.7212600712420938  0.3188633865652932  0.2865166556713699  1.0000
  F   F5        1.0  0.4577063919384289  0.6248631819415342  0.5424699017164352  1.0000
  F   F6        1.0  0.5422936075362405  0.3751368183521237  0.45753009844907594  1.0000
  F   F7        1.0  0.5307519681337891  0.8140006351121916  0.4933676334200453  1.0000
  F   F8        1.0  0.4692480313408802  0.18599936518146643  0.5066323667454659  1.0000
  F   F9        1.0  0.2541573188245545  0.7753707470486293  0.5398552221680194  1.0000
  F   F10       1.0  0.7458426807805596  0.22462925237979922  0.4601447780012418  1.0000
  F   F11       1.0  0.5553166011674193  0.7189297747853906  0.6658415499673201  1.0000
  F   F12       1.0  0.444683399491949  0.2810702255096122  0.33415845019677665  1.0000
  P   P1        1.0  0.4048089880225485  0.7474643360571951  0.6023767384729092  1.0000
  P   P2        1.0  0.5951910115825653  0.2525356633712335  0.39762326169635204  1.0000
