data_image0
_chemical_formula_structural       H38C62N20
_chemical_formula_sum              "H38 C62 N20"
_cell_length_a       6.344267307886919
_cell_length_b       7.551419887111167
_cell_length_c       27.665605999475623
_cell_angle_alpha    87.665415241625
_cell_angle_beta     85.82564076641485
_cell_angle_gamma    78.73188674936347

_space_group_name_H-M_alt    "P 1"
_space_group_IT_number       1

loop_
  _space_group_symop_operation_xyz
  'x, y, z'

loop_
  _atom_site_type_symbol
  _atom_site_label
  _atom_site_symmetry_multiplicity
  _atom_site_fract_x
  _atom_site_fract_y
  _atom_site_fract_z
  _atom_site_occupancy
  H   H1        1.0  0.10832020528338637  0.43489943825365074  0.27707908731088443  1.0000
  H   H2        1.0  0.8916797945873721  0.5651005618017365  0.7229209125804573  1.0000
  H   H3        1.0  0.7201377370374897  0.38104656288394395  0.2069641205051979  1.0000
  H   H4        1.0  0.27986226283326887  0.6189534371714431  0.793035879386144  1.0000
  H   H5        1.0  0.4636779223703389  0.6795225310999135  0.249233521862574  1.0000
  H   H6        1.0  0.5363220775004195  0.32047746895547374  0.7507664780287678  1.0000
  H   H7        1.0  0.19556387469196926  0.6641323652433021  0.2348306113321079  1.0000
  H   H8        1.0  0.8044361251890554  0.3358676348130942  0.7651693889205029  1.0000
  H   H9        1.0  0.41227192305535265  0.6274509599580576  0.18887245588247997  1.0000
  H   H10       1.0  0.5877280768154058  0.3725490400973295  0.8111275440088619  1.0000
  H   H11       1.0  0.18038741841033248  0.9445469221921554  0.3148704113805995  1.0000
  H   H12       1.0  0.819612581460426  0.0554530778632316  0.6851295885107423  1.0000
  H   H13       1.0  0.20760041282608277  0.10700764805960422  0.35741614197298616  1.0000
  H   H14       1.0  0.7923995870446757  0.892992351995783  0.6425838579183556  1.0000
  H   H15       1.0  0.9970434141866297  0.1581847541286243  0.3177163013870751  1.0000
  H   H16       1.0  0.002956585694394748  0.8418152459277719  0.6822836988655359  1.0000
  H   H17       1.0  0.9720297992358564  0.0869435490263997  0.20973219754736247  1.0000
  H   H18       1.0  0.027970200634902024  0.9130564510289874  0.7902678023439793  1.0000
  H   H19       1.0  0.9125521314691586  0.9146650283768193  0.25241555647022934  1.0000
  H   H20       1.0  0.08744786841186575  0.08533497167957696  0.7475844437823814  1.0000
  H   H21       1.0  0.8116655641599714  0.9333591800622507  0.1942119378519408  1.0000
  H   H22       1.0  0.18833443571078712  0.06664081999313654  0.805788062039401  1.0000
  H   H23       1.0  0.20544672718195214  0.5929421520730151  0.6114933336387524  1.0000
  H   H24       1.0  0.7945532726888065  0.40705784798237193  0.38850666625258956  1.0000
  H   H25       1.0  0.18238751577726417  0.7720262384651357  0.5362045301008793  1.0000
  H   H26       1.0  0.8176124840934943  0.22797376159025148  0.4637954697904625  1.0000
  H   H27       1.0  0.30802026968640367  0.2793163163126038  0.4536612606921116  1.0000
  H   H28       1.0  0.6919797301843549  0.7206836837427834  0.5463387391992303  1.0000
  H   H29       1.0  0.32303358327524173  0.09949340897675532  0.5295632950806695  1.0000
  H   H30       1.0  0.6769664165955168  0.9005065910786318  0.47043670481067235  1.0000
  H   H31       1.0  0.4290652657849051  0.8178286018872754  0.07461607520795605  1.0000
  H   H32       1.0  0.5709347340858533  0.18217139816811193  0.9253839246833858  1.0000
  H   H33       1.0  0.520500789307477  0.32519304016141676  0.004066009572530499  1.0000
  H   H34       1.0  0.4794992105735476  0.6748069598949795  0.9959339906800804  1.0000
  H   H35       1.0  0.9660419226497524  0.3228651577663878  0.07726148612804458  1.0000
  H   H36       1.0  0.033958077221005974  0.6771348422889995  0.9227385137632974  1.0000
  H   H37       1.0  0.994750153032396  0.8308167398238597  0.9993873251016824  1.0000
  H   H38       1.0  0.005249846848628477  0.16918326023253646  0.0006126751509284641  1.0000
  C   C1        1.0  0.3151351579148393  0.16641469953590599  0.28514162755788625  1.0000
  C   C2        1.0  0.6848648419559191  0.8335853005194812  0.7148583723334554  1.0000
  C   C3        1.0  0.26238434088518503  0.34628428753035273  0.26848369819990914  1.0000
  C   C4        1.0  0.7376156589958395  0.6537157125260434  0.7315163020527017  1.0000
  C   C5        1.0  0.6044062630121934  0.3151426226801598  0.22815335042097398  1.0000
  C   C6        1.0  0.3955937368688313  0.6848573773762364  0.7718466498316369  1.0000
  C   C7        1.0  0.6467507534610301  0.13296431921269258  0.24234354261133562  1.0000
  C   C8        1.0  0.35324924640972855  0.8670356808426944  0.7576564572800063  1.0000
  C   C9        1.0  0.36732474750768185  0.6109087480526333  0.22750892714471382  1.0000
  C   C10       1.0  0.6326752539437022  0.38909125200170264  0.772491072717854  1.0000
  C   C11       1.0  0.164930117973041  0.08968296634525288  0.32026406823672154  1.0000
  C   C12       1.0  0.8350698818977175  0.9103170337101343  0.6797359316546202  1.0000
  C   C13       1.0  0.8491232541434642  0.011614659440722416  0.2240352814248269  1.0000
  C   C14       1.0  0.15087674572729423  0.9883853406146647  0.775964718466515  1.0000
  C   C15       1.0  0.3101472913912745  0.03902187859756842  0.6209930252772776  1.0000
  C   C16       1.0  0.689852708479484  0.9609781214578187  0.3790069746140641  1.0000
  C   C17       1.0  0.23820066344928345  0.31419768203980825  0.6658612061778182  1.0000
  C   C18       1.0  0.761799336421475  0.6858023180155789  0.33413879371352373  1.0000
  C   C19       1.0  0.2723319461580367  0.22951062958600477  0.6206447043869892  1.0000
  C   C20       1.0  0.7276680537127218  0.7704893704693824  0.37935529550435265  1.0000
  C   C21       1.0  0.26446646824278836  0.33186155287118163  0.5765708176501794  1.0000
  C   C22       1.0  0.7355335316279701  0.6681384471842057  0.4234291822411625  1.0000
  C   C23       1.0  0.22476929852221195  0.524804623064886  0.5770984262363391  1.0000
  C   C24       1.0  0.7752307013588126  0.47519537699151027  0.4229015740162717  1.0000
  C   C25       1.0  0.21546765148220473  0.6251416014015411  0.5348799694976623  1.0000
  C   C26       1.0  0.7845323483885538  0.3748583986538459  0.46512003039367966  1.0000
  C   C27       1.0  0.2463359565328228  0.5398161568431664  0.48892482011698457  1.0000
  C   C28       1.0  0.7536640433379356  0.46018384321222067  0.5110751797743573  1.0000
  C   C29       1.0  0.28656833006666166  0.3466660599800937  0.4882574672769907  1.0000
  C   C30       1.0  0.7134316698040968  0.6533339400752934  0.5117425326143512  1.0000
  C   C31       1.0  0.29473295642364894  0.24647956976890836  0.5306210446007104  1.0000
  C   C32       1.0  0.7052670434471097  0.7535204302864787  0.46937895529063156  1.0000
  C   C33       1.0  0.23695815749617832  0.6449218782955382  0.44568041045360846  1.0000
  C   C34       1.0  0.7630418423745802  0.3550781217598491  0.5543195894377334  1.0000
  C   C35       1.0  0.26642374120236045  0.5723627533874099  0.39884493515770764  1.0000
  C   C36       1.0  0.733576258668398  0.4276372466679773  0.6011550647336342  1.0000
  C   C37       1.0  0.19772347648273475  0.8357340137449254  0.44596569390026997  1.0000
  C   C38       1.0  0.8022765233982898  0.16426598631147085  0.5540343063523409  1.0000
  C   C39       1.0  0.4000834362016889  0.06641989386082181  0.13404977478309285  1.0000
  C   C40       1.0  0.5999165636793357  0.9335801061955744  0.8659502254695179  1.0000
  C   C41       1.0  0.4653422061736642  0.3452890182656882  0.09698296961072957  1.0000
  C   C42       1.0  0.5346577937073604  0.6547109817907081  0.9030170306418812  1.0000
  C   C43       1.0  0.4439999273438735  0.16499824860191412  0.09128045982016714  1.0000
  C   C44       1.0  0.5560000725371509  0.8350017514544821  0.9087195404324436  1.0000
  C   C45       1.0  0.4699574295735938  0.08362761057190313  0.04560920847639453  1.0000
  C   C46       1.0  0.5300425702971646  0.916372389483484  0.9543907914149473  1.0000
  C   C47       1.0  0.4579978354315724  0.8977456988742195  0.041979029293744835  1.0000
  C   C48       1.0  0.542002164449452  0.10225430118217683  0.9580209709588658  1.0000
  C   C49       1.0  0.5120901423283346  0.18291320740742564  0.002063422965165331  1.0000
  C   C50       1.0  0.4879098575526899  0.8170867926489707  0.9979365772874454  1.0000
  C   C51       1.0  0.9663148944294723  0.57754437215593  0.13386141049050115  1.0000
  C   C52       1.0  0.033685105441286306  0.42245562789945706  0.8661385894008407  1.0000
  C   C53       1.0  0.954036006308569  0.8634152767235359  0.09223467873094016  1.0000
  C   C54       1.0  0.04596399357245546  0.13658472333286042  0.9077653215216707  1.0000
  C   C55       1.0  0.9644564502601531  0.676122542027105  0.08940792188625611  1.0000
  C   C56       1.0  0.035543549610605234  0.32387745802828216  0.9105920780050857  1.0000
  C   C57       1.0  0.9791702110154346  0.5894219552783795  0.04462326154562669  1.0000
  C   C58       1.0  0.02082978885532386  0.4105780447770076  0.9553767383457151  1.0000
  C   C59       1.0  0.9822545820320757  0.4002406541869995  0.043571233085823904  1.0000
  C   C60       1.0  0.017745417838682675  0.5997593458683877  0.9564287668055179  1.0000
  C   C61       1.0  0.9958949799264429  0.6863948534587464  0.999548084261175  1.0000
  C   C62       1.0  0.004105019944315528  0.31360514659664085  0.0004519156301668616  1.0000
  N   N1        1.0  0.5042899079224652  0.06181228329905547  0.27161124281172544  1.0000
  N   N2        1.0  0.49571009194829313  0.9381877167563317  0.7283887570796164  1.0000
  N   N3        1.0  0.41086399318189815  0.4174552645461482  0.24131184978674802  1.0000
  N   N4        1.0  0.5891360066888602  0.5825447355092391  0.7586881501045939  1.0000
  N   N5        1.0  0.34026743126464615  0.8810913523048065  0.6203239707605863  1.0000
  N   N6        1.0  0.6597325686061122  0.11890864775058073  0.3796760291307555  1.0000
  N   N7        1.0  0.20660949911953247  0.3870815770325628  0.7030163587142447  1.0000
  N   N8        1.0  0.7933905007614921  0.6129184230238335  0.2969836415383661  1.0000
  N   N9        1.0  0.2894457729695025  0.5232291207104341  0.35888828205827544  1.0000
  N   N10       1.0  0.7105542269012559  0.47677087934495305  0.6411117178330664  1.0000
  N   N11       1.0  0.16658693001800626  0.9937757738496037  0.4450032821226325  1.0000
  N   N12       1.0  0.8334130698630182  0.006224226206792649  0.5549967181299783  1.0000
  N   N13       1.0  0.3653619603015783  0.981081035996947  0.16896656744917424  1.0000
  N   N14       1.0  0.6346380395794461  0.01891896405944927  0.8310334328034366  1.0000
  N   N15       1.0  0.48319409146448844  0.49489444624074597  0.10209473010858143  1.0000
  N   N16       1.0  0.5168059084062699  0.5051055538146412  0.8979052697827604  1.0000
  N   N17       1.0  0.973624998888914  0.493986109641361  0.1705075960031919  1.0000
  N   N18       1.0  0.026375000981844473  0.5060138904140261  0.8294924038881499  1.0000
  N   N19       1.0  0.9443855129108328  0.019242955241070073  0.09501261947503797  1.0000
  N   N20       1.0  0.05561448697019173  0.9807570448153262  0.9049873807775729  1.0000
