data_image0
_chemical_formula_structural       H24C32N4O8
_chemical_formula_sum              "H24 C32 N4 O8"
_cell_length_a       3.6785547548798547
_cell_length_b       27.0561612997264
_cell_length_c       6.520672058376521
_cell_angle_alpha    90.0
_cell_angle_beta     91.49955256029256
_cell_angle_gamma    90.0

_space_group_name_H-M_alt    "P 1"
_space_group_IT_number       1

loop_
  _space_group_symop_operation_xyz
  'x, y, z'

loop_
  _atom_site_type_symbol
  _atom_site_label
  _atom_site_symmetry_multiplicity
  _atom_site_fract_x
  _atom_site_fract_y
  _atom_site_fract_z
  _atom_site_occupancy
  H   H1        1.0  0.09065713185318806  0.17532195042199014  0.0727896400820633  1.0000
  H   H2        1.0  0.9093428686802996  0.6753219504270462  0.9272103605404293  1.0000
  H   H3        1.0  0.7631456336744445  0.23602496375066243  0.5087761245893486  1.0000
  H   H4        1.0  0.23685436684133973  0.7360249637557185  0.49122387449933086  1.0000
  H   H5        1.0  0.49002765077972493  0.40257581736512427  0.21999646601690273  1.0000
  H   H6        1.0  0.5099723497537627  0.9025758173701803  0.7800035346055899  1.0000
  H   H7        1.0  0.47832060915445573  0.30033814294573163  0.7271882097256058  1.0000
  H   H8        1.0  0.521679391379032  0.8003381429507878  0.27281179089688673  1.0000
  H   H9        1.0  0.7747432078733069  0.33736275700323765  0.0025143220595603708  1.0000
  H   H10       1.0  0.22525679266018087  0.8373627570082938  0.9974856785629324  1.0000
  H   H11       1.0  0.5217735467195976  0.05728973681183939  0.46686920899017176  1.0000
  H   H12       1.0  0.47822645381389006  0.5572897368168955  0.5331307916323208  1.0000
  H   H13       1.0  0.5839832357140937  0.14987921734636492  0.44772155817600806  1.0000
  H   H14       1.0  0.4160167648016906  0.6498792173514211  0.5522784409126715  1.0000
  H   H15       1.0  0.8866717583264326  0.003273996226541411  0.2643317978363935  1.0000
  H   H16       1.0  0.11332824220705495  0.5032739962315975  0.7356682027860991  1.0000
  H   H17       1.0  0.3246024769362943  0.9831409273224944  0.6649857727118127  1.0000
  H   H18       1.0  0.6753975208601575  0.48314092731743824  0.3350142263467051  1.0000
  H   H19       1.0  0.9584724113094311  0.09509211567370486  0.2335121931415537  1.0000
  H   H20       1.0  0.04152758922405654  0.5950921156787611  0.7664878074809389  1.0000
  H   H21       1.0  0.37447606873805767  0.20067220548596093  0.7461283950258997  1.0000
  H   H22       1.0  0.6255239317777266  0.7006722054910169  0.25387160406277987  1.0000
  H   H23       1.0  0.059468340805687775  0.9484501557972119  0.9834369604782841  1.0000
  H   H24       1.0  0.9405316597277998  0.4484501557921557  0.01656304014420846  1.0000
  C   C1        1.0  0.778917743102411  0.28279679867510893  0.24179680324065228  1.0000
  C   C2        1.0  0.22108225743107657  0.7827967986801649  0.7582031973818404  1.0000
  C   C3        1.0  0.7000989300855385  0.272342498936629  0.4462013543149951  1.0000
  C   C4        1.0  0.2999010704479493  0.772342498941685  0.5537986463074975  1.0000
  C   C5        1.0  0.9380041508457899  0.24484657807192292  0.10322512989532946  1.0000
  C   C6        1.0  0.061995849687697724  0.7448465780769791  0.8967748707271632  1.0000
  C   C7        1.0  0.5535372803303219  0.36614525099316936  0.28090737717973374  1.0000
  C   C8        1.0  0.44646271746612975  0.8661452509982256  0.7190926218787841  1.0000
  C   C9        1.0  0.5465487084614862  0.30829820304495115  0.5695519649254138  1.0000
  C   C10       1.0  0.4534512893526689  0.8082982030500072  0.4304480356669171  1.0000
  C   C11       1.0  0.4765641789338647  0.3547561564136987  0.4841646675611076  1.0000
  C   C12       1.0  0.5234358215819196  0.8547561564187548  0.515835331527572  1.0000
  C   C13       1.0  0.7077482254369127  0.3298863992982721  0.16072680233879297  1.0000
  C   C14       1.0  0.29225177509657485  0.8298863993033281  0.8392731982836997  1.0000
  C   C15       1.0  0.43991292777534347  0.08096810207966024  0.5927655286121022  1.0000
  C   C16       1.0  0.5600870727404409  0.5809681020847164  0.4072344704765773  1.0000
  C   C17       1.0  0.4737988826618976  0.1316159539615108  0.5813489283033746  1.0000
  C   C18       1.0  0.5262011178538867  0.631615953966567  0.41865107078530495  1.0000
  C   C19       1.0  0.29162766440937143  0.05894041997805971  0.7687813634055852  1.0000
  C   C20       1.0  0.7083723361241162  0.5589404199831158  0.23121863721690739  1.0000
  C   C21       1.0  0.99813228953276  0.019732814056124023  0.127040198193509  1.0000
  C   C22       1.0  0.001867711000727642  0.5197328140611801  0.8729598024289835  1.0000
  C   C23       1.0  0.24391295850450018  0.007249158068923227  0.7897144728725873  1.0000
  C   C24       1.0  0.7560870420112841  0.5072491580739794  0.21028552621609212  1.0000
  C   C25       1.0  0.03784310412657291  0.0702623594286165  0.11080762369073015  1.0000
  C   C26       1.0  0.9621568964069146  0.5702623594336725  0.8891923769317626  1.0000
  C   C27       1.0  0.18560706131543037  0.09085269424472484  0.9318470018150738  1.0000
  C   C28       1.0  0.8143929392180572  0.5908526942497809  0.06815299880741882  1.0000
  C   C29       1.0  0.3601683699987495  0.16040097380864912  0.7479451253090791  1.0000
  C   C30       1.0  0.6398316305347381  0.6604009738137052  0.2520548753134136  1.0000
  C   C31       1.0  0.09937756237922052  0.9881122253019073  0.9656642459617604  1.0000
  C   C32       1.0  0.9006224381365638  0.48811222529685117  0.03433575312691925  1.0000
  N   N1        1.0  0.31352388762584465  0.39310498345186734  0.6109585556928224  1.0000
  N   N2        1.0  0.6864761101883103  0.8931049834569234  0.3890414448995084  1.0000
  N   N3        1.0  0.22348591835244988  0.14096570270072156  0.9159427612226354  1.0000
  N   N4        1.0  0.7765140821810378  0.6409657027057777  0.08405723939985721  1.0000
  O   O1        1.0  0.9836361143584653  0.20068510199393685  0.18716149305597965  1.0000
  O   O2        1.0  0.01636388345568976  0.7006851019989929  0.8128385075363511  1.0000
  O   O3        1.0  0.259856091842931  0.38378588392378493  0.7943362230322712  1.0000
  O   O4        1.0  0.7401439059535206  0.883785883928841  0.20566377602624664  1.0000
  O   O5        1.0  0.2344442440981773  0.43334576439409983  0.5280575320749025  1.0000
  O   O6        1.0  0.765555756417607  0.9333457643991561  0.471942467013777  1.0000
  O   O7        1.0  0.016430592020271865  0.25520199127693044  0.9247832543704062  1.0000
  O   O8        1.0  0.9835694084955124  0.7552019912819865  0.0752167447182734  1.0000
