data_image0
_chemical_formula_structural       H30C40N16O2S2
_chemical_formula_sum              "H30 C40 N16 O2 S2"
_cell_length_a       7.9556811361902495
_cell_length_b       12.804327735207718
_cell_length_c       9.725935898091121
_cell_angle_alpha    94.75423093816138
_cell_angle_beta     108.28155268106809
_cell_angle_gamma    88.59552485201483

_space_group_name_H-M_alt    "P 1"
_space_group_IT_number       1

loop_
  _space_group_symop_operation_xyz
  'x, y, z'

loop_
  _atom_site_type_symbol
  _atom_site_label
  _atom_site_symmetry_multiplicity
  _atom_site_fract_x
  _atom_site_fract_y
  _atom_site_fract_z
  _atom_site_occupancy
  H   H1        1.0  0.38898410700696523  0.70916941216199  0.7202349963092894  1.0000
  H   H2        1.0  0.6110158926156559  0.29083058782037274  0.2797650031889865  1.0000
  H   H3        1.0  0.324868668546019  0.7151354522032668  0.5287076231630815  1.0000
  H   H4        1.0  0.6751313310766021  0.28486454777909614  0.4712923763351945  1.0000
  H   H5        1.0  0.2927144851949785  0.5952576060375859  0.6009584818085247  1.0000
  H   H6        1.0  0.7072855144276425  0.404742393944777  0.39904151768975127  1.0000
  H   H7        1.0  0.8919969819739234  0.514944820282124  0.6644723075779014  1.0000
  H   H8        1.0  0.10800301764869759  0.485055179700239  0.33552769192037446  1.0000
  H   H9        1.0  0.8955907672813173  0.450311875846553  0.8167473013961876  1.0000
  H   H10       1.0  0.10440923366507357  0.549688124134628  0.18325269843893904  1.0000
  H   H11       1.0  0.6510005621736921  0.46907137319703257  0.9089673996055291  1.0000
  H   H12       1.0  0.348999437448929  0.5309286267853304  0.0910325998927469  1.0000
  H   H13       1.0  0.4821145544283469  0.557096344600266  0.8363242609625078  1.0000
  H   H14       1.0  0.5178854451942742  0.442903655382097  0.16367573853576808  1.0000
  H   H15       1.0  0.8356393555359912  0.16824134202520613  0.950402685075965  1.0000
  H   H16       1.0  0.16436064409010698  0.8317586579601625  0.0495973154516986  1.0000
  H   H17       1.0  0.32685427703997477  0.9915018206612529  0.04909805334612711  1.0000
  H   H18       1.0  0.6731457225826462  0.00849817932111005  0.9509019461521488  1.0000
  H   H19       1.0  0.41602831048745126  0.0676164432861233  0.7194460013468077  1.0000
  H   H20       1.0  0.5839716891351697  0.9323835566962396  0.2805539981514683  1.0000
  H   H21       1.0  0.24734723380572787  0.9103255219825379  0.7164565193043086  1.0000
  H   H22       1.0  0.7526527658168931  0.08967447799982496  0.28354348019396725  1.0000
  H   H23       1.0  0.7636525573846077  0.09563502267328086  0.6253886985816808  1.0000
  H   H24       1.0  0.23634744224149035  0.904364977312088  0.3746113019459829  1.0000
  H   H25       1.0  0.9349402217042955  0.253572509985607  0.6380636498786247  1.0000
  H   H26       1.0  0.0650597779223912  0.7464274907804325  0.36193634970225774  1.0000
  H   H27       1.0  0.3545402741625164  0.6814966156218927  0.9589885445143999  1.0000
  H   H28       1.0  0.6454597254635815  0.31850338436347597  0.04101145601326389  1.0000
  H   H29       1.0  0.19649192893933862  0.6165504472126768  0.8583217109090098  1.0000
  H   H30       1.0  0.8035080706867594  0.38344955277269194  0.14167828961865386  1.0000
  C   C1        1.0  0.6756163851506523  0.5413112093911666  0.7345039921446881  1.0000
  C   C2        1.0  0.32438361447196873  0.4586887905911963  0.2654960073535878  1.0000
  C   C3        1.0  0.37794090320588825  0.6640742254910691  0.617246717615083  1.0000
  C   C4        1.0  0.6220590964167326  0.33592577449129396  0.38275328188319285  1.0000
  C   C5        1.0  0.0942220064558643  0.09264347066557267  0.0012228180022860868  1.0000
  C   C6        1.0  0.9057779931702337  0.9073565293197959  0.9987771825253777  1.0000
  C   C7        1.0  0.183930736018256  0.9950169724814864  0.027736874118395642  1.0000
  C   C8        1.0  0.8160692649316119  0.0049830275027005835  0.9722631267461186  1.0000
  C   C9        1.0  0.9069770620550693  0.09460506462255537  0.9724947451599145  1.0000
  C   C10       1.0  0.09302293756755162  0.9053949353598075  0.02750525433836155  1.0000
  C   C11       1.0  0.18750433636971808  0.1855435152783333  0.9996610375668776  1.0000
  C   C12       1.0  0.8124956645801499  0.8144564847058534  0.00033896329763664457  1.0000
  C   C13       1.0  0.10078419543638585  0.28252247721803664  0.9737470119192663  1.0000
  C   C14       1.0  0.8992158041897121  0.7174775227673321  0.02625298860839734  1.0000
  C   C15       1.0  0.37112566411776293  0.18749073160388124  0.02400314032405139  1.0000
  C   C16       1.0  0.628874335504858  0.8125092683784816  0.9759968591742245  1.0000
  C   C17       1.0  0.189322654899214  0.17344616482489073  0.679158350612657  1.0000
  C   C18       1.0  0.8106773460512428  0.8265538359399668  0.32084164930507614  1.0000
  C   C19       1.0  0.2739990446470106  0.07359377769561314  0.7015199226437951  1.0000
  C   C20       1.0  0.7260009549756103  0.9264062222867496  0.2984800768544808  1.0000
  C   C21       1.0  0.17928894346439458  0.9853478230032923  0.6988213154870764  1.0000
  C   C22       1.0  0.8207110561582265  0.014652176979070642  0.30117868401119957  1.0000
  C   C23       1.0  0.9915661048580982  0.9902350552217472  0.6716732148890748  1.0000
  C   C24       1.0  0.008433894764522902  0.009764944760615816  0.3283267846092013  1.0000
  C   C25       1.0  0.9063876605175482  0.08982401959048808  0.6472210002946653  1.0000
  C   C26       1.0  0.0936123404323198  0.9101759803936987  0.352779000569849  1.0000
  C   C27       1.0  0.002131967782302912  0.1781849868493609  0.6524999904685883  1.0000
  C   C28       1.0  0.9978680318437951  0.8218150131360079  0.3475000100590754  1.0000
  C   C29       1.0  0.28815709130828665  0.26434200097092814  0.6804732184731578  1.0000
  C   C30       1.0  0.7118429083143343  0.7356579990114348  0.3195267810251181  1.0000
  C   C31       1.0  0.4723342386362212  0.2605545243573022  0.7033339403138712  1.0000
  C   C32       1.0  0.5276657623101697  0.7394454756238789  0.2966660595212553  1.0000
  C   C33       1.0  0.20754792000276254  0.36351010278413237  0.658004477191345  1.0000
  C   C34       1.0  0.7924520809436284  0.6364898971970485  0.3419955226437815  1.0000
  C   C35       1.0  0.9725231167987672  0.8004596387102332  0.6964172710258038  1.0000
  C   C36       1.0  0.02747688414762384  0.1995403612709479  0.3035827288093229  1.0000
  C   C37       1.0  0.7070670910082639  0.9026003164265431  0.6411695838243308  1.0000
  C   C38       1.0  0.29293290861435706  0.09739968355581985  0.35883041567394514  1.0000
  C   C39       1.0  0.8928206407622171  0.899778144248947  0.669866276849369  1.0000
  C   C40       1.0  0.10717935886388093  0.10022185573642164  0.3301337236782947  1.0000
  N   N1        1.0  0.8278726951361062  0.49640486309618426  0.7348031281301649  1.0000
  N   N2        1.0  0.1721273058102848  0.5035951368849968  0.26519687170496165  1.0000
  N   N3        1.0  0.5953142273838247  0.5197761394232586  0.8292727536706479  1.0000
  N   N4        1.0  0.40468577224227337  0.48022386056211  0.17072724685701585  1.0000
  N   N5        1.0  0.029944971924271733  0.3633374789500246  0.9508093217599276  1.0000
  N   N6        1.0  0.9700550276983494  0.6366625210323384  0.04919067773834837  1.0000
  N   N7        1.0  0.5234852163372417  0.19285774088319274  0.041224159664746865  1.0000
  N   N8        1.0  0.4765147832853794  0.8071422590991701  0.9587758398335291  1.0000
  N   N9        1.0  0.6249441649428127  0.25787861782196425  0.7205876357599532  1.0000
  N   N10       1.0  0.37505583467980835  0.7421213821603987  0.2794123637383228  1.0000
  N   N11       1.0  0.14154072136940482  0.44608083008838034  0.6385546038628565  1.0000
  N   N12       1.0  0.8584592795769861  0.5539191698928008  0.3614453959722701  1.0000
  N   N13       1.0  0.5533812787999344  0.9033813077067077  0.6175619415365559  1.0000
  N   N14       1.0  0.44661872083022924  0.09661869306233753  0.38243805907371425  1.0000
  N   N15       1.0  0.03503607114890271  0.7174053002029561  0.7187352950082396  1.0000
  N   N16       1.0  0.9649639284737183  0.2825946997794066  0.2812647044900364  1.0000
  O   O1        1.0  0.31258018836597884  0.608581125824704  0.931509719157457  1.0000
  O   O2        1.0  0.6874198125804121  0.391418874156477  0.06849028067766956  1.0000
  S   S1        1.0  0.5921518065080884  0.6294609931493363  0.6027899295628298  1.0000
  S   S2        1.0  0.40784819311800957  0.37053900683603236  0.3972100709648338  1.0000
