data_image0
_chemical_formula_structural       H128C68N8Br16
_chemical_formula_sum              "H128 C68 N8 Br16"
_cell_length_a       13.026292252287178
_cell_length_b       11.923836187549146
_cell_length_c       14.551860601048588
_cell_angle_alpha    90.0
_cell_angle_beta     95.77679855589392
_cell_angle_gamma    90.0

_space_group_name_H-M_alt    "P 1"
_space_group_IT_number       1

loop_
  _space_group_symop_operation_xyz
  'x, y, z'

loop_
  _atom_site_type_symbol
  _atom_site_label
  _atom_site_symmetry_multiplicity
  _atom_site_fract_x
  _atom_site_fract_y
  _atom_site_fract_z
  _atom_site_occupancy
  H   H1        1.0  0.2954600812923573  0.26128330857590953  0.23583337285736006  1.0000
  H   H2        1.0  0.20453991893494045  0.7612833082593526  0.2641666275057612  1.0000
  H   H3        1.0  0.7045399190838665  0.7387166916296329  0.7641666271781777  1.0000
  H   H4        1.0  0.7954600806736771  0.23871669110753357  0.7358333725304135  1.0000
  H   H5        1.0  0.21123621813289334  0.08565012165014622  0.7419217847514894  1.0000
  H   H6        1.0  0.2887637812134357  0.5856501213335893  0.7580782151203755  1.0000
  H   H7        1.0  0.7887637814757242  0.9143498785553963  0.2580782152846853  1.0000
  H   H8        1.0  0.7112362183951818  0.41434987803329687  0.24192178491579916  1.0000
  H   H9        1.0  0.10479686208166268  0.9314920051986182  0.5876642526784945  1.0000
  H   H10       1.0  0.3952031380322726  0.4314920046765188  0.9123357471927334  1.0000
  H   H11       1.0  0.895203138294561  0.0685079950069243  0.41233574735704326  1.0000
  H   H12       1.0  0.6047968615763449  0.5685079946903674  0.08766425284344116  1.0000
  H   H13       1.0  0.9869686373947001  0.006657610751386617  0.5983696759194385  1.0000
  H   H14       1.0  0.5130313631304497  0.5066576112734861  0.9016303237885158  1.0000
  H   H15       1.0  0.013031362981523692  0.9933423886154995  0.40163032411609934  1.0000
  H   H16       1.0  0.486968637245774  0.4933423889320565  0.09836967624702192  1.0000
  H   H17       1.0  0.0817305788835367  0.9988753621453516  0.6938571479544289  1.0000
  H   H18       1.0  0.4182694212303986  0.4988753624619084  0.8061428519167992  1.0000
  H   H19       1.0  0.9182694207250808  0.0011246372215346849  0.3061428520817458  1.0000
  H   H20       1.0  0.5817305791458252  0.501124637743634  0.1938571481187386  1.0000
  H   H21       1.0  0.10520794576860758  0.11013674788414962  0.5074788278262211  1.0000
  H   H22       1.0  0.3947920543453277  0.6101367475675927  0.9925211720450069  1.0000
  H   H23       1.0  0.8947920546076161  0.889863252321393  0.4925211722093166  1.0000
  H   H24       1.0  0.6052079460308961  0.3898632526379498  0.007478827990530866  1.0000
  H   H25       1.0  0.12047419395806747  0.18263015406685154  0.39880402916505664  1.0000
  H   H26       1.0  0.37952580626923027  0.6826301545889509  0.10119597119806459  1.0000
  H   H27       1.0  0.8795258064181564  0.8173698461386909  0.601195970870481  1.0000
  H   H28       1.0  0.6204741941069936  0.31736984561659154  0.8988040288374731  1.0000
  H   H29       1.0  0.3678648374291652  0.40237723619601057  0.35046662667819245  1.0000
  H   H30       1.0  0.1321351627981325  0.9023772358794536  0.14953337368492883  1.0000
  H   H31       1.0  0.6321351629470585  0.597622764009532  0.6495333733573453  1.0000
  H   H32       1.0  0.8678648375780912  0.09762276348743258  0.8504666263506089  1.0000
  H   H33       1.0  0.4594414538788862  0.3560014129037199  0.27671753812170097  1.0000
  H   H34       1.0  0.04055854558080531  0.8560014134258191  0.22328246224205722  1.0000
  H   H35       1.0  0.5405585457297313  0.6439985864631664  0.7232824619144738  1.0000
  H   H36       1.0  0.9594414540278121  0.14399858677972327  0.7767175377941175  1.0000
  H   H37       1.0  0.4656364844392402  0.3060887656114453  0.39254704277141805  1.0000
  H   H38       1.0  0.03436351570968579  0.8060887661335446  0.1074529569009984  1.0000
  H   H39       1.0  0.5343635159369835  0.6939112337554408  0.6074529572641195  1.0000
  H   H40       1.0  0.965636484666538  0.19391123407199778  0.8925470431345393  1.0000
  H   H41       1.0  0.45315952232257406  0.09939581451459077  0.33547649825501014  1.0000
  H   H42       1.0  0.04684047713711744  0.5993958141980339  0.16452350210874803  1.0000
  H   H43       1.0  0.5468404772860435  0.9006041856909517  0.6645235017811646  1.0000
  H   H44       1.0  0.9531595224715  0.40060418600750863  0.8354764979274266  1.0000
  H   H45       1.0  0.44918099151879676  0.14400575225890763  0.21853066102705734  1.0000
  H   H46       1.0  0.05081900863012926  0.6440057519423508  0.2814693386453591  1.0000
  H   H47       1.0  0.5508190087790553  0.8559942479466348  0.7814693383177755  1.0000
  H   H48       1.0  0.9491809909784883  0.35599424742453545  0.7185306613908155  1.0000
  H   H49       1.0  0.3487531374679772  0.05863293985286633  0.25530873329653603  1.0000
  H   H50       1.0  0.1512468626809488  0.5586329403749657  0.24469126637588046  1.0000
  H   H51       1.0  0.6512468629082465  0.9413670595140199  0.7446912667390017  1.0000
  H   H52       1.0  0.8487531369276687  0.4413670598305768  0.7553087336602942  1.0000
  H   H53       1.0  0.3026706339929776  0.9223732636887728  0.678385392404374  1.0000
  H   H54       1.0  0.19732936612095764  0.4223732631666735  0.8216146074668539  1.0000
  H   H55       1.0  0.697329366383246  0.0776267365167696  0.32161460763116384  1.0000
  H   H56       1.0  0.8026706342552661  0.577626737038869  0.1783853925686837  1.0000
  H   H57       1.0  0.3713927796254718  0.9776088103400872  0.7810396048058439  1.0000
  H   H58       1.0  0.12860722048846351  0.477608810656644  0.718960395065384  1.0000
  H   H59       1.0  0.6286072199831457  0.022391189026799062  0.21896039523033073  1.0000
  H   H60       1.0  0.8713927798877603  0.5223911895488984  0.2810396049701537  1.0000
  H   H61       1.0  0.41321488094917086  0.007523197953161269  0.6710623461848788  1.0000
  H   H62       1.0  0.08678511916476443  0.5075231984752606  0.8289376536863492  1.0000
  H   H63       1.0  0.5867851194270529  0.992476801413725  0.32893765385065893  1.0000
  H   H64       1.0  0.9132148804438531  0.49247680173028185  0.17106234634982548  1.0000
  H   H65       1.0  0.4014607629511473  0.2214114760111148  0.7003629346009185  1.0000
  H   H66       1.0  0.09853923647355345  0.7214114765332142  0.7996370659616512  1.0000
  H   H67       1.0  0.5985392366574702  0.7785885233557714  0.2996370654352562  1.0000
  H   H68       1.0  0.9014607631350642  0.27858852367232834  0.20036293407452346  1.0000
  H   H69       1.0  0.3597990823568244  0.19620493884702303  0.8111269671043775  1.0000
  H   H70       1.0  0.1402009177571109  0.6962049385304662  0.6888730327668504  1.0000
  H   H71       1.0  0.6402009180193994  0.8037950613585194  0.1888730329311602  1.0000
  H   H72       1.0  0.8597990818515066  0.3037950608364201  0.31112696726932426  1.0000
  H   H73       1.0  0.2828728565997606  0.2793002660903315  0.7289725504361849  1.0000
  H   H74       1.0  0.2171271435141747  0.7793002657737746  0.7710274494350432  1.0000
  H   H75       1.0  0.7171271437764631  0.7206997341152109  0.2710274495993529  1.0000
  H   H76       1.0  0.7828728560944429  0.22069973443176788  0.2289725506011315  1.0000
  H   H77       1.0  0.15523146755370032  0.1701125743506982  0.19381664794633868  1.0000
  H   H78       1.0  0.3447685325952257  0.6701125740341413  0.30618335172607786  1.0000
  H   H79       1.0  0.8447685320549173  0.8298874258548443  0.8061833520898359  1.0000
  H   H80       1.0  0.6552314677809981  0.32988742617140115  0.6938166483094599  1.0000
  H   H81       1.0  0.03972428958836887  0.13998410442294754  0.24306254474578726  1.0000
  H   H82       1.0  0.46027571063892886  0.6399841041063906  0.256937455617334  1.0000
  H   H83       1.0  0.9602757100202486  0.860015895782595  0.7569374552903874  1.0000
  H   H84       1.0  0.5397242897372949  0.36001589609915186  0.7430625444182036  1.0000
  H   H85       1.0  0.1492921431860221  0.05249051900373739  0.2708164381789107  1.0000
  H   H86       1.0  0.3507078570412756  0.5524905195258368  0.22918356218421057  1.0000
  H   H87       1.0  0.8507078571902017  0.9475094803631489  0.729183561856627  1.0000
  H   H88       1.0  0.6492921433349482  0.4475094806797057  0.7708164378513271  1.0000
  H   H89       1.0  0.08402246808445199  0.22720256362032767  0.6926819703872411  1.0000
  H   H90       1.0  0.41597753202948334  0.727202564142427  0.8073180294839869  1.0000
  H   H91       1.0  0.9159775315241655  0.7727974365852148  0.3073180296489336  1.0000
  H   H92       1.0  0.5840224683467404  0.2727974360631154  0.19268197055155079  1.0000
  H   H93       1.0  0.9834053112729323  0.21500656581285604  0.6010797862293932  1.0000
  H   H94       1.0  0.5165946892522174  0.7150065654962992  0.8989202134785611  1.0000
  H   H95       1.0  0.01659468910329144  0.7849934343926864  0.3989202138061447  1.0000
  H   H96       1.0  0.4834053111240063  0.2849934347092433  0.10107978655697661  1.0000
  H   H97       1.0  0.09691190711834145  0.29401281222403164  0.5849620773140292  1.0000
  H   H98       1.0  0.40308809299559384  0.7940128119074747  0.9150379225571988  1.0000
  H   H99       1.0  0.9030880932578824  0.7059871879815108  0.4150379227215085  1.0000
  H   H100      1.0  0.5969119066130236  0.20598718829806772  0.08496207747897586  1.0000
  H   H101      1.0  0.1469683508027507  0.386569356329561  0.3852909560123307  1.0000
  H   H102      1.0  0.3530316493461753  0.8865693568516604  0.11470904366008579  1.0000
  H   H103      1.0  0.8530316488058669  0.6134306430373252  0.614709044023844  1.0000
  H   H104      1.0  0.6469683510300485  0.11343064335388207  0.885290956375452  1.0000
  H   H105      1.0  0.042607115658227675  0.34317408891215817  0.30565822456361313  1.0000
  H   H106      1.0  0.45739288456907007  0.8431740885956014  0.19434177579950812  1.0000
  H   H107      1.0  0.9573928839503899  0.6568259112933843  0.6943417754725615  1.0000
  H   H108      1.0  0.5426071158071537  0.15682591160994117  0.8056582242360295  1.0000
  H   H109      1.0  0.1635583616587873  0.37173168016417213  0.26468558696740613  1.0000
  H   H110      1.0  0.33644163849013875  0.8717316806862715  0.23531441270501036  1.0000
  H   H111      1.0  0.8364416387174364  0.6282683192027141  0.7353144130681316  1.0000
  H   H112      1.0  0.6635583611184788  0.128268319519271  0.7646855873311643  1.0000
  H   H113      1.0  0.7687231929706065  0.3184738854400962  0.5670632647410058  1.0000
  H   H114      1.0  0.7312768067869371  0.8184738859621956  0.9329367349675854  1.0000
  H   H115      1.0  0.23127680663801103  0.6815261147654463  0.43293673529516896  1.0000
  H   H116      1.0  0.26872319358928665  0.1815261142433469  0.06706326506795228  1.0000
  H   H117      1.0  0.7529664248666055  0.46541529191711123  0.5940990640847356  1.0000
  H   H118      1.0  0.7470335757369161  0.9654152916005543  0.9059009363139235  1.0000
  H   H119      1.0  0.24703357550961835  0.5345847082884313  0.40590093595080223  1.0000
  H   H120      1.0  0.2529664246393077  0.03458470776633188  0.09409906372161427  1.0000
  H   H121      1.0  0.5941889388604765  0.383005032790432  0.5074468219507005  1.0000
  H   H122      1.0  0.9058110608970671  0.8830050333125314  0.9925531777578908  1.0000
  H   H123      1.0  0.405811060748141  0.6169949665764541  0.49255317808547416  1.0000
  H   H124      1.0  0.09418893871155049  0.11699496689301112  0.0074468222782839745  1.0000
  H   H125      1.0  0.6672447082462538  0.3432563485125563  0.41492157107252026  1.0000
  H   H126      1.0  0.8327552923922584  0.8432563481959995  0.08507842912732728  1.0000
  H   H127      1.0  0.33275529212996996  0.6567436516929862  0.5850784289630175  1.0000
  H   H128      1.0  0.16724470798396535  0.1567436511708868  0.9149215709082104  1.0000
  C   C1        1.0  0.29135074450207343  0.13944467399981605  0.5410639552977599  1.0000
  C   C2        1.0  0.20864925561186187  0.6394446745219154  0.958936044573468  1.0000
  C   C3        1.0  0.7086492558741503  0.8605553253670701  0.45893604473777794  1.0000
  C   C4        1.0  0.7913507447643618  0.360555325683627  0.04106395546206961  1.0000
  C   C5        1.0  0.3059257271203425  0.17384320007385679  0.4497921747381673  1.0000
  C   C6        1.0  0.19407427310695524  0.6738431997572999  0.05020782562495393  1.0000
  C   C7        1.0  0.6940742732558812  0.8261568001316858  0.5502078252973704  1.0000
  C   C8        1.0  0.8059257265016622  0.3261568004482426  0.9497921744112207  1.0000
  C   C9        1.0  0.34298624664962707  0.2326908459961233  0.29815640006534583  1.0000
  C   C10       1.0  0.15701375357767064  0.7326908456795664  0.2018436002977754  1.0000
  C   C11       1.0  0.6570137529589906  0.7673091542094193  0.7018435999708288  1.0000
  C   C12       1.0  0.842986246798553  0.2673091545259761  0.7981563997377624  1.0000
  C   C13       1.0  0.38924147638872136  0.1544731268552081  0.5146202974758778  1.0000
  C   C14       1.0  0.11075852372521396  0.6544731265386512  0.9853797023953502  1.0000
  C   C15       1.0  0.6107585239875024  0.8455268733503344  0.48537970255966  1.0000
  C   C16       1.0  0.8892414766510098  0.345526872828235  0.014620297640187505  1.0000
  C   C17       1.0  0.27691361143149434  0.09965401665286022  0.7015159211451525  1.0000
  C   C18       1.0  0.22308638791483476  0.5996540171749596  0.7984840787267125  1.0000
  C   C19       1.0  0.7230863881771232  0.9003459835526822  0.29848407889102224  1.0000
  C   C20       1.0  0.776913611615411  0.4003459830305829  0.2015159206187574  1.0000
  C   C21       1.0  0.07066140795055813  0.0052362997124362045  0.6181633497180785  1.0000
  C   C22       1.0  0.42933859224174886  0.5052363002345356  0.8818366508438541  1.0000
  C   C23       1.0  0.9293385916580594  0.99476369965445  0.38183665031809616  1.0000
  C   C24       1.0  0.5706614081344749  0.4947636999710069  0.11816334919168354  1.0000
  C   C25       1.0  0.11682319077342788  0.11279460727617084  0.583098485798179  1.0000
  C   C26       1.0  0.38317680934050735  0.6127946077982702  0.9169015140730489  1.0000
  C   C27       1.0  0.883176809602796  0.8872053920907154  0.41690151423735866  1.0000
  C   C28       1.0  0.6168231910357164  0.38720539240727225  0.08309848596248884  1.0000
  C   C29       1.0  0.1569749189580238  0.21420270538998237  0.3392353215273403  1.0000
  C   C30       1.0  0.3430250811909023  0.7142027059120818  0.1607646781450762  1.0000
  C   C31       1.0  0.8430250806505938  0.7857972939769039  0.6607646785088344  1.0000
  C   C32       1.0  0.6569749191069498  0.28579729429346074  0.8392353211997569  1.0000
  C   C33       1.0  0.41313868397555903  0.32974560268662656  0.3318592007580026  1.0000
  C   C34       1.0  0.08686131617336701  0.8297456032087259  0.16814079891441389  1.0000
  C   C35       1.0  0.5868613155546869  0.670254397518916  0.6681407985874672  1.0000
  C   C36       1.0  0.9131386842028568  0.17025439699681658  0.8318592011211239  1.0000
  C   C37       1.0  0.4019770805483696  0.1276091314965265  0.2753471913202683  1.0000
  C   C38       1.0  0.09802291967892811  0.6276091320186259  0.22465280904285292  1.0000
  C   C39       1.0  0.5980229198278542  0.872390868709016  0.7246528087152695  1.0000
  C   C40       1.0  0.9019770806972957  0.37239086818691663  0.7753471909926848  1.0000
  C   C41       1.0  0.3449781169680307  0.9953749383435231  0.7084880100668333  1.0000
  C   C42       1.0  0.15502188314590465  0.49537493866008003  0.7915119898043947  1.0000
  C   C43       1.0  0.6550218834081931  0.004625061862019371  0.29151198996870453  1.0000
  C   C44       1.0  0.844978116462713  0.5046250615454625  0.20848801023177987  1.0000
  C   C45       1.0  0.3334064617736347  0.2055921375840267  0.7374644760579134  1.0000
  C   C46       1.0  0.16659353757269438  0.7055921372674698  0.7625355238139514  1.0000
  C   C47       1.0  0.6665935378349828  0.7944078626215159  0.2625355239782612  1.0000
  C   C48       1.0  0.8334064620359231  0.2944078629380727  0.23746447622222322  1.0000
  C   C49       1.0  0.12415769328343063  0.13918682325852438  0.2564878993460526  1.0000
  C   C50       1.0  0.37584230686549536  0.6391868229419675  0.2435121003263639  1.0000
  C   C51       1.0  0.8758423070927932  0.8608131769470181  0.7435121006894851  1.0000
  C   C52       1.0  0.6241576935107284  0.3608131764249187  0.7564878997091738  1.0000
  C   C53       1.0  0.06758799295613328  0.2188489508707656  0.617372118259263  1.0000
  C   C54       1.0  0.43241200715780204  0.7188489505542087  0.882627881611965  1.0000
  C   C55       1.0  0.9324120066524842  0.781151049334777  0.38262788177691165  1.0000
  C   C56       1.0  0.5675879932184218  0.2811510496513338  0.11737211842357276  1.0000
  C   C57       1.0  0.12634622026626516  0.33659228765578497  0.3228355926558226  1.0000
  C   C58       1.0  0.37365377988266085  0.8365922873392281  0.1771644070165939  1.0000
  C   C59       1.0  0.8736537801099586  0.6634077125497576  0.6771644073797153  1.0000
  C   C60       1.0  0.6263462204935629  0.16340771202765816  0.8228355930189438  1.0000
  C   C61       1.0  0.7566548665882267  0.4038616477328347  0.5387949049079732  1.0000
  C   C62       1.0  0.7433451331693169  0.9038616482549342  0.9612050948006179  1.0000
  C   C63       1.0  0.24334513302039093  0.5961383516340515  0.4612050951282015  1.0000
  C   C64       1.0  0.2566548664393006  0.09613835195060838  0.038794905235556655  1.0000
  C   C65       1.0  0.6618401335972376  0.4028964424231528  0.471366806190582  1.0000
  C   C66       1.0  0.8381598661952968  0.9028964421065959  0.02863319331919764  1.0000
  C   C67       1.0  0.33815986593300823  0.5971035577823897  0.5286331931548879  1.0000
  C   C68       1.0  0.16184013418092708  0.0971035572602903  0.97136680671634  1.0000
  N   N1        1.0  0.26932903373436345  0.2053741892694806  0.3666897022088495  1.0000
  N   N2        1.0  0.23067096649293425  0.70537418979158  0.13331029815427178  1.0000
  N   N3        1.0  0.7306709658742541  0.7946258109360619  0.6333102978273251  1.0000
  N   N4        1.0  0.7693290338832895  0.2946258104139625  0.8666897018812659  1.0000
  N   N5        1.0  0.23044684367347512  0.11590325196207363  0.6049083441177338  1.0000
  N   N6        1.0  0.2695531564404602  0.615903252484173  0.8950916557534941  1.0000
  N   N7        1.0  0.7695531559351424  0.8840967474048126  0.39509165591844086  1.0000
  N   N8        1.0  0.7304468439357635  0.38409674772136954  0.10490834428204357  1.0000
  Br  Br1       1.0  0.5324643520204466  0.14425607186688053  0.5437730372196601  1.0000
  Br  Br2       1.0  0.9675356478154685  0.6442560723889799  0.9562269631796358  1.0000
  Br  Br3       1.0  0.4675356475881709  0.855743928338662  0.4562269628165146  1.0000
  Br  Br4       1.0  0.03246435256075517  0.3557439278165626  0.043773036855901885  1.0000
  Br  Br5       1.0  0.7681784670664263  0.10839171216974361  0.5840173163146362  1.0000
  Br  Br6       1.0  0.7318215335370954  0.6083917118531867  0.9159826840840228  1.0000
  Br  Br7       1.0  0.23182153330979755  0.891608288035799  0.4159826837209016  1.0000
  Br  Br8       1.0  0.2681784668391285  0.39160828751369947  0.0840173159515149  1.0000
  Br  Br9       1.0  0.6297645977431204  0.5492610957569822  0.41238976180081727  1.0000
  Br  Br10      1.0  0.8702354021277856  0.049261096073539054  0.08761023839966715  1.0000
  Br  Br11      1.0  0.3702354026331032  0.4507389036099041  0.5876102382347205  1.0000
  Br  Br12      1.0  0.12976459748083205  0.9507389041320035  0.9123897616365075  1.0000
  Br  Br13      1.0  0.8836586127336227  0.43806224421753204  0.482308562857752  1.0000
  Br  Br14      1.0  0.6163413871372831  0.9380622447396314  0.017691437342732437  1.0000
  Br  Br15      1.0  0.11634138764260099  0.5619377551493542  0.5176914371777858  1.0000
  Br  Br16      1.0  0.3836586124713343  0.06193775546591105  0.9823085626934422  1.0000
