data_image0
_chemical_formula_structural       H16C24N12O4S4
_chemical_formula_sum              "H16 C24 N12 O4 S4"
_cell_length_a       7.2599098137498554
_cell_length_b       8.187238870827606
_cell_length_c       11.593886451115253
_cell_angle_alpha    83.1310131131605
_cell_angle_beta     80.66363802825435
_cell_angle_gamma    69.40135756285565

_space_group_name_H-M_alt    "P 1"
_space_group_IT_number       1

loop_
  _space_group_symop_operation_xyz
  'x, y, z'

loop_
  _atom_site_type_symbol
  _atom_site_label
  _atom_site_symmetry_multiplicity
  _atom_site_fract_x
  _atom_site_fract_y
  _atom_site_fract_z
  _atom_site_occupancy
  H   H1        1.0  0.2887069740656889  0.6588851585624317  0.9884366364651674  1.0000
  H   H2        1.0  0.7112880364272336  0.34112044339036607  0.011561118000233711  1.0000
  H   H3        1.0  0.2556955291956976  0.878764205238526  0.9971421401930871  1.0000
  H   H4        1.0  0.7442985940739999  0.1212417750441496  0.0028558297755261895  1.0000
  H   H5        1.0  0.20030683296865126  0.4810745085928025  0.16775789917166353  1.0000
  H   H6        1.0  0.7996917742535626  0.5189286628552521  0.8322395973328975  1.0000
  H   H7        1.0  0.02238265331418628  0.4810755601691404  0.3658381916513768  1.0000
  H   H8        1.0  0.9776164013321818  0.5189255793116199  0.6341606004787163  1.0000
  H   H9        1.0  0.8693950402089058  0.7506790055346353  0.4750435065371595  1.0000
  H   H10       1.0  0.13060267604312903  0.24932211615569239  0.5249563111675256  1.0000
  H   H11       1.0  0.35047958563395626  0.9542951287169064  0.4578323174753399  1.0000
  H   H12       1.0  0.6495252596429811  0.045710918200005154  0.5421615776307691  1.0000
  H   H13       1.0  0.3697274929535351  0.6486082827832804  0.4737978789351992  1.0000
  H   H14       1.0  0.6302737168548259  0.3513968496964662  0.5262030417693249  1.0000
  H   H15       1.0  0.5294621975254177  0.4578242443761481  0.3060126529239422  1.0000
  H   H16       1.0  0.4705412019747491  0.5421769262489158  0.6939826404950098  1.0000
  C   C1        1.0  0.9682473984961179  0.9093263244788141  0.3301155494748237  1.0000
  C   C2        1.0  0.03174950499905842  0.09067454626337748  0.6698845633332271  1.0000
  C   C3        1.0  0.06874046516042782  0.9122021090473275  0.2117777321723946  1.0000
  C   C4        1.0  0.9312568276015005  0.08780022345069341  0.7882221249458427  1.0000
  C   C5        1.0  0.15293762739931127  0.7566863887620886  0.14818690577817015  1.0000
  C   C6        1.0  0.8470592638840625  0.24331774544588747  0.8518112228269762  1.0000
  C   C7        1.0  0.13249791442798464  0.604511415523683  0.20932992164277078  1.0000
  C   C8        1.0  0.8674984969799991  0.3954912848111973  0.7906687668066212  1.0000
  C   C9        1.0  0.032341344481685595  0.6049135322308288  0.32449706927899713  1.0000
  C   C10       1.0  0.9676558219396005  0.39508802424125217  0.6755015389345385  1.0000
  C   C11       1.0  0.9494051719588968  0.7524597843661127  0.38735458270336337  1.0000
  C   C12       1.0  0.05059110428936207  0.24754083990242204  0.6126451896970477  1.0000
  C   C13       1.0  0.6117849769074055  0.6645243372569914  0.19847293493261414  1.0000
  C   C14       1.0  0.3881973038617323  0.33547907221909745  0.8015269552510452  1.0000
  C   C15       1.0  0.6030130555955453  0.8456422513236714  0.18707955150713937  1.0000
  C   C16       1.0  0.39697277777887063  0.15436301348339376  0.812918692761854  1.0000
  C   C17       1.0  0.5047097610456351  0.9496252597911587  0.2841162640849692  1.0000
  C   C18       1.0  0.49528458047160734  0.05038209057199997  0.715879609986082  1.0000
  C   C19       1.0  0.4264025367638156  0.874473950688809  0.38452774043618326  1.0000
  C   C20       1.0  0.5736005909827082  0.12552814070566753  0.6154693648226714  1.0000
  C   C21       1.0  0.4378887087321785  0.6982401470560033  0.39329519528836693  1.0000
  C   C22       1.0  0.5621105573241104  0.3017640969629193  0.6067046754078804  1.0000
  C   C23       1.0  0.5263979536188721  0.5923650280483123  0.30135354663046054  1.0000
  C   C24       1.0  0.47358899652857284  0.4076389262966242  0.6986457759492497  1.0000
  N   N1        1.0  0.897655167668353  0.0697222400598556  0.3736473951549261  1.0000
  N   N2        1.0  0.10234496984244154  0.9302762167044445  0.6263553699739309  1.0000
  N   N3        1.0  0.07359307771471056  0.07136880694575305  0.16973199889899498  1.0000
  N   N4        1.0  0.9264078405367464  0.9286343371504531  0.8302713599393718  1.0000
  N   N5        1.0  0.24500237451005455  0.7640005323145593  0.03768808260572654  1.0000
  N   N6        1.0  0.7549956752903842  0.23600442581827888  0.9623102171306109  1.0000
  N   N7        1.0  0.708051366036489  0.5789023259875766  0.10154264601712873  1.0000
  N   N8        1.0  0.2919611799270414  0.42108895189867146  0.8984683517648255  1.0000
  N   N9        1.0  0.6937279509582573  0.8899074408337494  0.08334658869263761  1.0000
  N   N10       1.0  0.30628611749423523  0.11008580867969628  0.9166578667932683  1.0000
  N   N11       1.0  0.48132121907647235  0.13285182536932158  0.28112710366500354  1.0000
  N   N12       1.0  0.5186790638880232  0.8671533781645497  0.7188698141647144  1.0000
  O   O1        1.0  0.5448087004185276  0.2027642951338434  0.189333597213231  1.0000
  O   O2        1.0  0.4551864144549734  0.797249973735139  0.8106652114572424  1.0000
  O   O3        1.0  0.39742978651437605  0.21479224168740524  0.3701171839689863  1.0000
  O   O4        1.0  0.602572627960985  0.7852071580120145  0.629881721983824  1.0000
  S   S1        1.0  0.957845880031337  0.20254418037254254  0.27249657126250143  1.0000
  S   S2        1.0  0.04216624293086353  0.797442306956018  0.727503613267296  1.0000
  S   S3        1.0  0.7798048701569814  0.7161617088967589  0.010022834667041916  1.0000
  S   S4        1.0  0.22023276403000197  0.283820618816574  0.9899950526211517  1.0000
