data_image0
_chemical_formula_structural       H40C34N6O10S2Cl4
_chemical_formula_sum              "H40 C34 N6 O10 S2 Cl4"
_cell_length_a       7.3717787172016
_cell_length_b       10.383434353931412
_cell_length_c       13.8278758484582
_cell_angle_alpha    67.3871817715124
_cell_angle_beta     87.77822073971885
_cell_angle_gamma    87.29076626564519

_space_group_name_H-M_alt    "P 1"
_space_group_IT_number       1

loop_
  _space_group_symop_operation_xyz
  'x, y, z'

loop_
  _atom_site_type_symbol
  _atom_site_label
  _atom_site_symmetry_multiplicity
  _atom_site_fract_x
  _atom_site_fract_y
  _atom_site_fract_z
  _atom_site_occupancy
  H   H1        1.0  0.5026067303715192  0.25237856778551643  0.34735702022828735  1.0000
  H   H2        1.0  0.49739326973509657  0.7476214319581428  0.6526429800798291  1.0000
  H   H3        1.0  0.6413012653667315  0.1077369168448578  0.5210873235425934  1.0000
  H   H4        1.0  0.3586987347398843  0.8922630828988013  0.4789126767655231  1.0000
  H   H5        1.0  0.650517444678665  0.5277095579232235  0.3098479509635437  1.0000
  H   H6        1.0  0.34948255542795087  0.47229044182043567  0.6901520493445727  1.0000
  H   H7        1.0  0.7240929157384753  0.37013395987480224  0.35781829594025266  1.0000
  H   H8        1.0  0.2759070843681403  0.629866039868857  0.6421817043678638  1.0000
  H   H9        1.0  0.534678604163773  0.4886967344575917  0.4836522787516273  1.0000
  H   H10       1.0  0.465321395966188  0.5113032656686212  0.516347720773037  1.0000
  H   H11       1.0  0.5698163585027002  0.3170651874299454  0.17302881071043338  1.0000
  H   H12       1.0  0.43018364162726064  0.6829348126962677  0.8269711888142308  1.0000
  H   H13       1.0  0.3315224545691235  0.4467730092924759  0.03863449726404403  1.0000
  H   H14       1.0  0.6684775442046574  0.5532269908242271  0.9613655022654377  1.0000
  H   H15       1.0  0.9781683188746861  0.4464351816844742  0.29497704215331094  1.0000
  H   H16       1.0  0.021831681231929488  0.5535648180591848  0.7050229581548055  1.0000
  H   H17       1.0  0.9542571837871546  0.3879068221721881  0.455728798398606  1.0000
  H   H18       1.0  0.04574281631946104  0.6120931775714711  0.5442712019095104  1.0000
  H   H19       1.0  0.20677613470576664  0.15983503022406753  0.7518371569070484  1.0000
  H   H20       1.0  0.7932238654241943  0.8401649699021454  0.2481628426176159  1.0000
  H   H21       1.0  0.43824190738326574  0.05140335662700665  0.8241188457537844  1.0000
  H   H22       1.0  0.5617580926496545  0.9485966440879022  0.17588115454006684  1.0000
  H   H23       1.0  0.7164612485695281  0.9108411583805739  0.8991426204808771  1.0000
  H   H24       1.0  0.28353875156043284  0.08915884174563923  0.10085737904378712  1.0000
  H   H25       1.0  0.9606950884363177  0.8747120481929198  0.7757683437010867  1.0000
  H   H26       1.0  0.039304911693643176  0.12528795193329328  0.2242316558235776  1.0000
  H   H27       1.0  0.9067244147865976  0.9819507433231547  0.5831979111762132  1.0000
  H   H28       1.0  0.09327558532001803  0.018049256420504454  0.41680208913190325  1.0000
  H   H29       1.0  0.3544102700908534  0.9195907627093051  0.009703166760533309  1.0000
  H   H30       1.0  0.6455897300157624  0.08040923703435414  0.9902968335475831  1.0000
  H   H31       1.0  0.24091833704265284  0.7772960915531559  0.10772810336109748  1.0000
  H   H32       1.0  0.7590816630639627  0.22270390819050323  0.8922718969470189  1.0000
  H   H33       1.0  0.05363458579509787  0.8902666868640873  0.9496784332551964  1.0000
  H   H34       1.0  0.9463654143115178  0.10973331287957198  0.05032156705292004  1.0000
  H   H35       1.0  0.22715223016841246  0.8537600339733642  0.8690101647021327  1.0000
  H   H36       1.0  0.7728477699615484  0.14623996615284862  0.13098983482253154  1.0000
  H   H37       1.0  0.10976427179000353  0.7150765403755351  0.966910605451255  1.0000
  H   H38       1.0  0.8902357283399572  0.284923459750678  0.033089394073409314  1.0000
  H   H39       1.0  0.030477135799176335  0.5122992195383591  0.10650088144262132  1.0000
  H   H40       1.0  0.9695228643074394  0.48770078020530006  0.8934991188654953  1.0000
  C   C1        1.0  0.43569727479426595  0.34810753033091435  0.19360885309416012  1.0000
  C   C2        1.0  0.5643027253356949  0.6518924697952987  0.8063911464305041  1.0000
  C   C3        1.0  0.30485574085613365  0.42098329708134946  0.12168642354304558  1.0000
  C   C4        1.0  0.6951442592738272  0.5790167030448635  0.8783135759816186  1.0000
  C   C5        1.0  0.13899576212541284  0.4554441778137541  0.15929513793770175  1.0000
  C   C6        1.0  0.8610042379812028  0.544555821929905  0.8407048623704148  1.0000
  C   C7        1.0  0.10770565194365501  0.41772545365573555  0.26655880331415216  1.0000
  C   C8        1.0  0.8922943481863058  0.5822745464704775  0.733441196210512  1.0000
  C   C9        1.0  0.2420289583272938  0.34313961304058876  0.33652885163101026  1.0000
  C   C10       1.0  0.7579710417056265  0.6568603876743203  0.6634711486628408  1.0000
  C   C11       1.0  0.22492146712314576  0.29404708464401486  0.45174452932626025  1.0000
  C   C12       1.0  0.77507853298347  0.7059529150996442  0.5482554709818563  1.0000
  C   C13       1.0  0.06844258234255242  0.3258937006976374  0.5003388396031472  1.0000
  C   C14       1.0  0.9315574164312285  0.6741062994190656  0.4996611599263345  1.0000
  C   C15       1.0  0.06272785010173668  0.27450029214199423  0.6094272279959825  1.0000
  C   C16       1.0  0.9372721500282242  0.7254997079842188  0.39057277152868186  1.0000
  C   C17       1.0  0.20936855719225722  0.19684400233237073  0.66676619724043  1.0000
  C   C18       1.0  0.7906314429143585  0.8031559974112885  0.33323380306768646  1.0000
  C   C19       1.0  0.35857917013501317  0.17051969862085653  0.6104333923332519  1.0000
  C   C20       1.0  0.6414208299716025  0.8294803011228025  0.38956660797486464  1.0000
  C   C21       1.0  0.5184254447513852  0.08702141426060465  0.664448080202012  1.0000
  C   C22       1.0  0.4815745553552304  0.9129785854830544  0.3355519201061046  1.0000
  C   C23       1.0  0.5413566823042247  0.03133361708161132  0.7726906273811728  1.0000
  C   C24       1.0  0.45864331780239104  0.9686663826620477  0.22730937292694373  1.0000
  C   C25       1.0  0.6995577744928396  0.9541742263798579  0.8143499435105652  1.0000
  C   C26       1.0  0.3004422256137762  0.04582577336380116  0.1856500567975513  1.0000
  C   C27       1.0  0.8348416999679694  0.9337606769963317  0.7474807035224146  1.0000
  C   C28       1.0  0.1651583001619914  0.06623932312988155  0.2525192960022496  1.0000
  C   C29       1.0  0.8076902393956805  0.991477384559252  0.6406278205496116  1.0000
  C   C30       1.0  0.1923097607342803  0.00852261556696108  0.3593721789750526  1.0000
  C   C31       1.0  0.3023186606477931  0.8150354981854627  0.02841774871788308  1.0000
  C   C32       1.0  0.6976813394821678  0.18496450194075023  0.9715822508067812  1.0000
  C   C33       1.0  0.16640226381826165  0.8179420819752159  0.9484079010096179  1.0000
  C   C34       1.0  0.8335977349555191  0.18205791814148684  0.05159209851986375  1.0000
  N   N1        1.0  0.4006330396702271  0.311198094780253  0.2965457439165996  1.0000
  N   N2        1.0  0.5993669604597336  0.6888019053459601  0.7034542556080647  1.0000
  N   N3        1.0  0.36591574115663567  0.216996032233256  0.5055803352022766  1.0000
  N   N4        1.0  0.63408425894998  0.783003967510403  0.49441966510583985  1.0000
  N   N5        1.0  0.6533216984909956  0.06443583050554126  0.6029136476367093  1.0000
  N   N6        1.0  0.34667830161562013  0.9355641692381179  0.3970863526714072  1.0000
  O   O1        1.0  0.4539460646899171  0.720255402128956  0.026756970546414592  1.0000
  O   O2        1.0  0.5460539354166987  0.2797445976147031  0.973243029761702  1.0000
  O   O3        1.0  0.729438744598266  0.5915217703570302  0.09844565133532236  1.0000
  O   O4        1.0  0.2705612555316948  0.40847822976918274  0.9015543481893419  1.0000
  O   O5        1.0  0.6977729871271974  0.8377060889732523  0.07804398940230206  1.0000
  O   O6        1.0  0.3022270129794184  0.1622939107704069  0.9219560109058145  1.0000
  O   O7        1.0  0.5201470662948368  0.6612152579700813  0.21389313655128064  1.0000
  O   O8        1.0  0.47985293381177896  0.3387847417735778  0.7861068637568359  1.0000
  O   O9        1.0  0.7307999754369137  0.4613943690847256  0.36347044081593727  1.0000
  O   O10       1.0  0.269200024669702  0.5386056306589335  0.6365295594921793  1.0000
  S   S1        1.0  0.6133332712020367  0.7016926973242825  0.11094328497174992  1.0000
  S   S2        1.0  0.386666728904579  0.29830730241937664  0.8890567153363665  1.0000
  Cl  Cl1       1.0  0.8713359642727139  0.30642406468662264  0.6732242565578138  1.0000
  Cl  Cl2       1.0  0.12866403442737162  0.6935759364013301  0.3267757429574025  1.0000
  Cl  Cl3       1.0  0.7612930703556338  0.15249830868507436  0.3699283476887717  1.0000
  Cl  Cl4       1.0  0.23870692975098196  0.8475016910585847  0.6300716526193448  1.0000
