data_image0
_chemical_formula_structural       H24B2C24N8O12Cl2
_chemical_formula_sum              "H24 B2 C24 N8 O12 Cl2"
_cell_length_a       6.834555096695402
_cell_length_b       7.099948426593471
_cell_length_c       17.570911578409053
_cell_angle_alpha    93.24092047351854
_cell_angle_beta     96.32025957877683
_cell_angle_gamma    118.23141886640786

_space_group_name_H-M_alt    "P 1"
_space_group_IT_number       1

loop_
  _space_group_symop_operation_xyz
  'x, y, z'

loop_
  _atom_site_type_symbol
  _atom_site_label
  _atom_site_symmetry_multiplicity
  _atom_site_fract_x
  _atom_site_fract_y
  _atom_site_fract_z
  _atom_site_occupancy
  H   H1        1.0  0.7485693447281448  0.18994409868670897  0.9751438160004755  1.0000
  H   H2        1.0  0.25143065401136927  0.8100559008219221  0.024856184405034468  1.0000
  H   H3        1.0  0.9980247061908544  0.8809714817009122  0.9473137416556335  1.0000
  H   H4        1.0  0.0019752937451504088  0.119028517602574  0.05268625817192249  1.0000
  H   H5        1.0  0.13954575618234333  0.020107779985706484  0.7891891275381164  1.0000
  H   H6        1.0  0.8604542437536614  0.9798922193177797  0.21081087228943965  1.0000
  H   H7        1.0  0.710810002288158  0.7922739721743208  0.753586406111057  1.0000
  H   H8        1.0  0.2891899984292655  0.20772602872675894  0.24641359371358248  1.0000
  H   H9        1.0  0.41574478144825955  0.061216564242652115  0.9008465945677682  1.0000
  H   H10       1.0  0.5842552187554999  0.9387834352687313  0.09915340583683803  1.0000
  H   H11       1.0  0.43303885869058245  0.7498481790248058  0.6421909815808715  1.0000
  H   H12       1.0  0.5669611408303505  0.2501518220814189  0.357809018821722  1.0000
  H   H13       1.0  0.963554282681288  0.5565615153992699  0.9203552545242891  1.0000
  H   H14       1.0  0.03644571752247147  0.44343848411211356  0.07964474588031711  1.0000
  H   H15       1.0  0.48997801148485876  0.4289032761776908  0.9341660437487771  1.0000
  H   H16       1.0  0.510021988451146  0.5710967231257954  0.0658339560787788  1.0000
  H   H17       1.0  0.3051833616415792  0.38013258927350907  0.8459943611901498  1.0000
  H   H18       1.0  0.6948166390758445  0.6198674116275708  0.15400563863448966  1.0000
  H   H19       1.0  0.014078498908268828  0.2755342016401893  0.655964019520135  1.0000
  H   H20       1.0  0.9859214998312454  0.7244657978684418  0.344035980885375  1.0000
  H   H21       1.0  0.7449260998471428  0.5085381199898602  0.8074420560863736  1.0000
  H   H22       1.0  0.2550739000888621  0.4914618793136261  0.1925579437411824  1.0000
  H   H23       1.0  0.7494104140468381  0.19574162252368157  0.5183582941355048  1.0000
  H   H24       1.0  0.2505895858891667  0.8042583767798046  0.4816417056920512  1.0000
  B   B1        1.0  0.7643235641175975  0.9558883278646157  0.9062255418722863  1.0000
  B   B2        1.0  0.23567643686758072  0.04411167324436129  0.09377445852940326  1.0000
  C   C1        1.0  0.5878836063313783  0.9316212984263901  0.8362176336939028  1.0000
  C   C2        1.0  0.4121163946537999  0.06837870268258682  0.1637823667077868  1.0000
  C   C3        1.0  0.2689556791997788  0.9753893076905104  0.7817206786344133  1.0000
  C   C4        1.0  0.731044320736226  0.024610691612975855  0.21827932119314286  1.0000
  C   C5        1.0  0.5860916198144486  0.8427796389079452  0.7623024164355263  1.0000
  C   C6        1.0  0.4139083801215565  0.1572203603955412  0.2376975833920298  1.0000
  C   C7        1.0  0.27345619304809554  0.8873036755474908  0.7091501950812785  1.0000
  C   C8        1.0  0.7265438054236641  0.11269632375324318  0.29084980474718136  1.0000
  C   C9        1.0  0.4250450358523054  0.9964046851055736  0.844314941358033  1.0000
  C   C10       1.0  0.5749549640836994  0.003595314197912581  0.15568505846952296  1.0000
  C   C11       1.0  0.43114661756993294  0.8195427938284185  0.6987800475444775  1.0000
  C   C12       1.0  0.5688533823660719  0.1804572054750677  0.3012199522830785  1.0000
  C   C13       1.0  0.8660489764208205  0.2950603675902455  0.6453279767670806  1.0000
  C   C14       1.0  0.1339510242966032  0.7049396333108343  0.35467202305755874  1.0000
  C   C15       1.0  0.24289871293667004  0.515029291934788  0.9374737722437905  1.0000
  C   C16       1.0  0.7571012863165083  0.4849707089635395  0.06252622758175272  1.0000
  C   C17       1.0  0.7781484788553382  0.37143370934804637  0.6991581516457444  1.0000
  C   C18       1.0  0.22185152108066672  0.62856628995544  0.3008418481818117  1.0000
  C   C19       1.0  0.8419921034987298  0.44582668555150096  0.7797031344525839  1.0000
  C   C20       1.0  0.15800789721869388  0.5541733153495789  0.22029686537205562  1.0000
  C   C21       1.0  0.5647702190199745  0.30518424303227004  0.5884763448057724  1.0000
  C   C22       1.0  0.4352297809160304  0.6948157562712163  0.41152365502178373  1.0000
  C   C23       1.0  0.7293305688878969  0.25355938590660143  0.5737923603284055  1.0000
  C   C24       1.0  0.2706694313158625  0.746440613604782  0.4262076400762007  1.0000
  N   N1        1.0  0.06692721550654937  0.5180845304503843  0.89269380243881  1.0000
  N   N2        1.0  0.9330727846972101  0.4819154690609992  0.10730619796579624  1.0000
  N   N3        1.0  0.014428207340632323  0.44233976401773306  0.8172421646824962  1.0000
  N   N4        1.0  0.9855717925953725  0.5576602352857533  0.18275783514505992  1.0000
  N   N5        1.0  0.35436919739825073  0.4322043093446374  0.903330824601377  1.0000
  N   N6        1.0  0.6456308025377542  0.5677956899588489  0.096669175226179  1.0000
  N   N7        1.0  0.37997571189185136  0.29171944744392  0.5396172740591892  1.0000
  N   N8        1.0  0.6200242883119081  0.7082805520674634  0.460382726345417  1.0000
  O   O1        1.0  0.8069721311769982  0.08501050867037573  0.9747669333612985  1.0000
  O   O2        1.0  0.19302786729476148  0.9149894906303582  0.025233066467161502  1.0000
  O   O3        1.0  0.8831315276344611  0.8468374404945717  0.9010687010783007  1.0000
  O   O4        1.0  0.11686847230154378  0.15316255880891472  0.09893129874925535  1.0000
  O   O5        1.0  0.5915699514088126  0.37799163105606215  0.6643480660214782  1.0000
  O   O6        1.0  0.4084300487949469  0.6220083684553214  0.335651934383128  1.0000
  O   O7        1.0  0.2893849785014602  0.5910774104698318  0.0084272336848201  1.0000
  O   O8        1.0  0.7106150222159635  0.4089225904312481  0.9915727661398194  1.0000
  O   O9        1.0  0.3524600770164176  0.21791218089362044  0.470397088761286  1.0000
  O   O10       1.0  0.6475399217230967  0.7820878186150106  0.529602911644224  1.0000
  O   O11       1.0  0.25516298701463536  0.3519362445175119  0.5670915587005007  1.0000
  O   O12       1.0  0.744837013970543  0.6480637565914652  0.43290844170118903  1.0000
  Cl  Cl1       1.0  0.07549901719583899  0.857865423450029  0.6322374504388684  1.0000
  Cl  Cl2       1.0  0.9245009835215847  0.14213457745105068  0.36776254938577113  1.0000
