data_image0
_chemical_formula_structural       H60C58N4O12Cl4
_chemical_formula_sum              "H60 C58 N4 O12 Cl4"
_cell_length_a       10.70726401027091
_cell_length_b       9.624461925491753
_cell_length_c       14.343461081473228
_cell_angle_alpha    90.0
_cell_angle_beta     110.78217499393503
_cell_angle_gamma    90.0

_space_group_name_H-M_alt    "P 1"
_space_group_IT_number       1

loop_
  _space_group_symop_operation_xyz
  'x, y, z'

loop_
  _atom_site_type_symbol
  _atom_site_label
  _atom_site_symmetry_multiplicity
  _atom_site_fract_x
  _atom_site_fract_y
  _atom_site_fract_z
  _atom_site_occupancy
  H   H1        1.0  0.40430318397145304  0.37489713169763966  0.9991846174848602  1.0000
  H   H2        1.0  0.5956968162324202  0.8748971314123377  0.0008153825098587415  1.0000
  H   H3        1.0  0.4376048062454965  0.6395394545327275  0.70897784783745  1.0000
  H   H4        1.0  0.5623951930252061  0.13953945481802932  0.29102215215889443  1.0000
  H   H5        1.0  0.7605069400354681  0.858012998952985  0.9394114875597278  1.0000
  H   H6        1.0  0.23949305923523473  0.35801299819926774  0.06058851243661669  1.0000
  H   H7        1.0  0.9097557310533521  0.9919621454071261  0.8741103000931361  1.0000
  H   H8        1.0  0.09024426915052138  0.4919621456924281  0.1258896999015828  1.0000
  H   H9        1.0  0.6214587028447414  0.9565383053380014  0.5762077904901703  1.0000
  H   H10       1.0  0.37854129735913206  0.45653830562330333  0.42379220950454854  1.0000
  H   H11       1.0  0.4697713942511632  0.8273596468711827  0.6405274800953179  1.0000
  H   H12       1.0  0.53022860595271  0.32735964611746543  0.3594725198994008  1.0000
  H   H13       1.0  0.2826174077444528  0.6590729652323809  0.8419216649848592  1.0000
  H   H14       1.0  0.7173825924594206  0.15907296447866362  0.15807833500985954  1.0000
  H   H15       1.0  0.28855113740992167  0.4539275924016687  0.6800330438543618  1.0000
  H   H16       1.0  0.7114488618607812  0.9539275931553861  0.31996695614198256  1.0000
  H   H17       1.0  0.17862240487060838  0.4395492280763374  0.7470497035445524  1.0000
  H   H18       1.0  0.8213775953332649  0.9395492277910356  0.25295029645016653  1.0000
  H   H19       1.0  0.9909359967230652  0.5961336492800193  0.7170919768552833  1.0000
  H   H20       1.0  0.00906400348080807  0.09613364956532114  0.2829080231394356  1.0000
  H   H21       1.0  0.8316500637485277  0.7620787672891381  0.6037509792615691  1.0000
  H   H22       1.0  0.16834993552217525  0.26207876653542084  0.39624902073477547  1.0000
  H   H23       1.0  0.8886479354558338  0.8792323597422964  0.4692847784086344  1.0000
  H   H24       1.0  0.11135206474803952  0.37923236002759825  0.5307152215860844  1.0000
  H   H25       1.0  0.10343708273151059  0.8247657034182115  0.44715278821464366  1.0000
  H   H26       1.0  0.8965629174723627  0.3247657037035133  0.5528472117800751  1.0000
  H   H27       1.0  0.2587009190430022  0.6525468975429614  0.5562658080610225  1.0000
  H   H28       1.0  0.7412990811608712  0.1525468967892441  0.4437341919336963  1.0000
  H   H29       1.0  0.5807310373545891  0.6085676877672032  0.48458327325451717  1.0000
  H   H30       1.0  0.4192689619161137  0.10856768805250497  0.5154167267418273  1.0000
  H   H31       1.0  0.5674994701931713  0.36821291594635613  0.7930464741221124  1.0000
  H   H32       1.0  0.43250053001070216  0.8682129156610544  0.20695352587260651  1.0000
  H   H33       1.0  0.25699081452514566  0.10605863350099391  0.5775565043440816  1.0000
  H   H34       1.0  0.7430091856787278  0.6060586342547112  0.4224434956506373  1.0000
  H   H35       1.0  0.12200551857344463  0.9711593512821165  0.6539251182145946  1.0000
  H   H36       1.0  0.8779944806972583  0.4711593515674183  0.34607488178174967  1.0000
  H   H37       1.0  0.40387194466414716  0.06666118012277546  0.9464455643723085  1.0000
  H   H38       1.0  0.5961280546065556  0.5666611798374737  0.05355443562403596  1.0000
  H   H39       1.0  0.5450563999000194  0.19219965275154696  0.8714956354915516  1.0000
  H   H40       1.0  0.45494359937068346  0.6921996535052642  0.12850436450479286  1.0000
  H   H41       1.0  0.7178252355033269  0.34502935080501457  0.6574753433323864  1.0000
  H   H42       1.0  0.28217476376737594  0.8450293505197128  0.34252465666395804  1.0000
  H   H43       1.0  0.7802045575579466  0.6004839329970866  0.7325654334990123  1.0000
  H   H44       1.0  0.21979544264592665  0.10048393328238833  0.26743456649570657  1.0000
  H   H45       1.0  0.7021963463633158  0.5492039036488711  0.8161776726892268  1.0000
  H   H46       1.0  0.29780365384055746  0.0492039039341728  0.18382232730549197  1.0000
  H   H47       1.0  0.9395350834284303  0.40437667062630583  0.7864889614273667  1.0000
  H   H48       1.0  0.06046491677544316  0.9043766713800232  0.21351103856735226  1.0000
  H   H49       1.0  0.8102808855173034  0.3483934588715905  0.9425008572979646  1.0000
  H   H50       1.0  0.18971911468657  0.8483934585862887  0.05749914269675417  1.0000
  H   H51       1.0  0.9626897714424869  0.2742181153015629  0.9424761648825313  1.0000
  H   H52       1.0  0.0373102287613864  0.7742181150162611  0.05752383511218764  1.0000
  H   H53       1.0  0.8103259834590235  0.233630380317091  0.845583639716689  1.0000
  H   H54       1.0  0.18967401674485  0.7336303800317892  0.1544163602780299  1.0000
  H   H55       1.0  0.927771128594207  0.5844583295717688  0.9599861610086147  1.0000
  H   H56       1.0  0.07222887160966619  0.08445832881805156  0.04001383898610416  1.0000
  H   H57       1.0  0.9847248899257419  0.6459947286541248  0.8655097159412455  1.0000
  H   H58       1.0  0.015275110278131318  0.14599472790040743  0.13449028405347344  1.0000
  H   H59       1.0  0.07473405529275846  0.5128869892378722  0.9473347028187475  1.0000
  H   H60       1.0  0.9252659449111149  0.012886988484154949  0.05266529717597138  1.0000
  C   C1        1.0  0.5150499444419184  0.756734459171116  0.8362252978475361  1.0000
  C   C2        1.0  0.48495005576195505  0.2567344594564179  0.16377470214718282  1.0000
  C   C3        1.0  0.604384413214558  0.8333350042932612  0.7951057762632406  1.0000
  C   C4        1.0  0.3956155869893152  0.33333500353954404  0.2048942237314781  1.0000
  C   C5        1.0  0.7288955222237897  0.8802886265838821  0.8599951331872885  1.0000
  C   C6        1.0  0.27110447704691315  0.3802886258301647  0.14000486680905605  1.0000
  C   C7        1.0  0.8132896068774629  0.9551567205696332  0.8240025477427438  1.0000
  C   C8        1.0  0.1867103933264105  0.4551567198159158  0.175997452251975  1.0000
  C   C9        1.0  0.7724488570353168  0.9834919222786955  0.7220119686301698  1.0000
  C   C10       1.0  0.2275511422353859  0.4834919225639974  0.27798803136617456  1.0000
  C   C11       1.0  0.6507330557272887  0.9342192404736014  0.655495132439887  1.0000
  C   C12       1.0  0.34926694447658474  0.43421924075890317  0.3445048675548319  1.0000
  C   C13       1.0  0.5667261987933208  0.8603964537557145  0.6925742482333292  1.0000
  C   C14       1.0  0.4332738014105526  0.36039645404101633  0.3074257517613896  1.0000
  C   C15       1.0  0.4143651372445589  0.48582338692779387  0.8874198021381007  1.0000
  C   C16       1.0  0.5856348629593144  0.985823386642492  0.11258019785661814  1.0000
  C   C17       1.0  0.3352707578053273  0.589779927848795  0.8073148438347554  1.0000
  C   C18       1.0  0.6647292423985461  0.08977992813409676  0.19268515615996348  1.0000
  C   C19       1.0  0.23299106724692772  0.5141839656399438  0.7176958902231412  1.0000
  C   C20       1.0  0.7670089320237752  0.014183965925245737  0.28230410977320325  1.0000
  C   C21       1.0  0.13664834406027584  0.6132905315325887  0.6458087462827632  1.0000
  C   C22       1.0  0.8633516561435975  0.11329053077887147  0.3541912537119558  1.0000
  C   C23       1.0  0.015255958114540924  0.6454668310906732  0.6573330063120303  1.0000
  C   C24       1.0  0.9847440420893325  0.14546683137597496  0.3426669936826886  1.0000
  C   C25       1.0  0.9258181579950719  0.7392422968764017  0.5938428886409771  1.0000
  C   C26       1.0  0.07418184220880145  0.2392422971617036  0.40615711135374183  1.0000
  C   C27       1.0  0.9571570785554672  0.8040803392346103  0.5179194024837149  1.0000
  C   C28       1.0  0.04284292164840615  0.3040803395199122  0.48208059751100396  1.0000
  C   C29       1.0  0.07758043371113482  0.7731228537869471  0.5055641936193858  1.0000
  C   C30       1.0  0.9224195664927385  0.27312285407224896  0.4944358063753331  1.0000
  C   C31       1.0  0.16646086363995957  0.6777714152229558  0.5684288704201383  1.0000
  C   C32       1.0  0.8335391365639138  0.17777141550825767  0.4315711295745805  1.0000
  C   C33       1.0  0.49190209153867853  0.2394071905357214  0.6714858052080329  1.0000
  C   C34       1.0  0.5080979086651949  0.7394071902504196  0.3285141947866859  1.0000
  C   C35       1.0  0.410712634346865  0.1602710065187552  0.7183988713018469  1.0000
  C   C36       1.0  0.5892873658570084  0.6602710072724726  0.28160112869287196  1.0000
  C   C37       1.0  0.2912879980368681  0.09659761420402709  0.6583026285659546  1.0000
  C   C38       1.0  0.7087120021670053  0.5965976139187252  0.3416973714287642  1.0000
  C   C39       1.0  0.21391164480961466  0.02133684060363796  0.7007224665002927  1.0000
  C   C40       1.0  0.786088354461088  0.5213368403183362  0.29927753349605174  1.0000
  C   C41       1.0  0.256279667874039  0.011296749973318096  0.8044054236470792  1.0000
  C   C42       1.0  0.7437203313966639  0.5112967496880163  0.19559457634926528  1.0000
  C   C43       1.0  0.3736845339973651  0.07504305441606257  0.8658873283783731  1.0000
  C   C44       1.0  0.6263154652733377  0.5750430541307608  0.13411267161797133  1.0000
  C   C45       1.0  0.4514518028754596  0.14730652175420825  0.8225463688242537  1.0000
  C   C46       1.0  0.5485481963952432  0.6473065214689064  0.17745363117209076  1.0000
  C   C47       1.0  0.5751837788416528  0.5076527610399748  0.6026763571197609  1.0000
  C   C48       1.0  0.4248162213622204  0.007652761325276553  0.39732364287495797  1.0000
  C   C49       1.0  0.6610341163102958  0.4153316227905135  0.6882147088875963  1.0000
  C   C50       1.0  0.33896588389357757  0.9153316225052117  0.3117852911071227  1.0000
  C   C51       1.0  0.7562253119904655  0.5093093191024853  0.7692315905957056  1.0000
  C   C52       1.0  0.2437746872802373  0.00930931938778719  0.23076840940063878  1.0000
  C   C53       1.0  0.8872687927364372  0.44177613178959674  0.8356276356531996  1.0000
  C   C54       1.0  0.11273120746743609  0.9417761315042948  0.16437236434151917  1.0000
  C   C55       1.0  0.8661456031868071  0.3172754584764986  0.8946098493925545  1.0000
  C   C56       1.0  0.13385439608389563  0.8172754581911967  0.10539015060378987  1.0000
  C   C57       1.0  0.9739388967583187  0.5522883576401504  0.9059456654422665  1.0000
  C   C58       1.0  0.026061102512384107  0.052288357925452236  0.0940543345540779  1.0000
  N   N1        1.0  0.4245679407786561  0.6711424202210623  0.7734306566116944  1.0000
  N   N2        1.0  0.5754320594252172  0.17114242050636408  0.22656934338302456  1.0000
  N   N3        1.0  0.5783204471305013  0.33350238432534496  0.7284954088543739  1.0000
  N   N4        1.0  0.421679553073372  0.8335023840400432  0.271504591140345  1.0000
  O   O1        1.0  0.5211234144345819  0.7692494237408206  0.9252837145533159  1.0000
  O   O2        1.0  0.4788765857692915  0.2692494229871033  0.07471628544140299  1.0000
  O   O3        1.0  0.3484226131139492  0.4456692948869285  0.944951036261748  1.0000
  O   O4        1.0  0.6515773870899242  0.9456692946016267  0.05504896373297085  1.0000
  O   O5        1.0  0.5271945677256905  0.44479526784363804  0.8960660458465621  1.0000
  O   O6        1.0  0.4728054315450123  0.9447952675583362  0.1039339541497824  1.0000
  O   O7        1.0  0.4838542663660521  0.22211598077372766  0.5821463123445711  1.0000
  O   O8        1.0  0.5161457338378213  0.7221159804884258  0.4178536876501478  1.0000
  O   O9        1.0  0.632604671283653  0.5326651130928611  0.5369671239287767  1.0000
  O   O10       1.0  0.3673953289202203  0.032665113378162886  0.46303287606594223  1.0000
  O   O11       1.0  0.46711207857787396  0.5572944691893463  0.5993771884647582  1.0000
  O   O12       1.0  0.5328879216259994  0.05729446843562896  0.4006228115299607  1.0000
  Cl  Cl1       1.0  0.8724308999753368  0.08353536293499558  0.6768932809342058  1.0000
  Cl  Cl2       1.0  0.1275690992953661  0.5835353626496937  0.32310671906213867  1.0000
  Cl  Cl3       1.0  0.16348644345080343  0.9158815555862478  0.859162976406231  1.0000
  Cl  Cl4       1.0  0.8365135567530699  0.4158815558715496  0.1408370235884879  1.0000
