data_image0
_chemical_formula_structural       H62C66N4O12Cl2
_chemical_formula_sum              "H62 C66 N4 O12 Cl2"
_cell_length_a       10.81627023134058
_cell_length_b       9.912145083228298
_cell_length_c       14.33208389812502
_cell_angle_alpha    90.0
_cell_angle_beta     111.20604721115909
_cell_angle_gamma    90.0

_space_group_name_H-M_alt    "P 1"
_space_group_IT_number       1

loop_
  _space_group_symop_operation_xyz
  'x, y, z'

loop_
  _atom_site_type_symbol
  _atom_site_label
  _atom_site_symmetry_multiplicity
  _atom_site_fract_x
  _atom_site_fract_y
  _atom_site_fract_z
  _atom_site_occupancy
  H   H1        1.0  0.5886244242818192  0.38822900065408256  0.008673656880031334  1.0000
  H   H2        1.0  0.41137557551892723  0.888229000491237  0.9913263431139934  1.0000
  H   H3        1.0  0.27991086966376955  0.6398446437927229  0.7105231633269032  1.0000
  H   H4        1.0  0.7200891301369766  0.13984464395556848  0.2894768366671214  1.0000
  H   H5        1.0  0.198017782582654  0.9092490439077262  0.9327708041539866  1.0000
  H   H6        1.0  0.8019822172180923  0.40924904306170856  0.06722919584003804  1.0000
  H   H7        1.0  0.9929821316863762  0.04083901583371089  0.8602461857850888  1.0000
  H   H8        1.0  0.0070178681143701575  0.5408390156708653  0.13975381420893587  1.0000
  H   H9        1.0  0.9627270464278423  0.9181852145606232  0.5648190600863615  1.0000
  H   H10       1.0  0.03727295337290371  0.41818521472346865  0.43518093990766316  1.0000
  H   H11       1.0  0.17216052466379975  0.7967781952025023  0.6347683124268765  1.0000
  H   H12       1.0  0.8278394751369466  0.2967781953653479  0.36523168756714824  1.0000
  H   H13       1.0  0.557616591447403  0.6599162789765779  0.8476148035930886  1.0000
  H   H14       1.0  0.4423834083533431  0.15991627913942344  0.15238519640093598  1.0000
  H   H15       1.0  0.5742964860785137  0.4425231706325472  0.7599104323925687  1.0000
  H   H16       1.0  0.4257035137222326  0.9425231704697017  0.24008956760145592  1.0000
  H   H17       1.0  0.4024059880835015  0.45531035937279907  0.6872195007429696  1.0000
  H   H18       1.0  0.5975940117172447  0.9553103592099537  0.31278049925105494  1.0000
  H   H19       1.0  0.7321621858323977  0.6185990639276416  0.7439077995555512  1.0000
  H   H20       1.0  0.2678378139683486  0.11859906409048716  0.2560922004384734  1.0000
  H   H21       1.0  0.7869855457166145  0.7681055458805217  0.6260646890303239  1.0000
  H   H22       1.0  0.21301445500923907  0.26810554604336717  0.37393531096490146  1.0000
  H   H23       1.0  0.6081051224508186  0.8484769733879706  0.4703965451662575  1.0000
  H   H24       1.0  0.3918948782750349  0.3484769725419528  0.5296034548289678  1.0000
  H   H25       1.0  0.3749252301071872  0.7741682900691315  0.4332974951160914  1.0000
  H   H26       1.0  0.6250747706186665  0.27416829023197703  0.566702504879134  1.0000
  H   H27       1.0  0.32235461221746037  0.6182561371472667  0.5495757079820807  1.0000
  H   H28       1.0  0.6776453875832859  0.1182561373101123  0.45042429201194395  1.0000
  H   H29       1.0  0.8452021617652848  0.13152743014283952  0.5989523154359105  1.0000
  H   H30       1.0  0.1547978380354613  0.631527429979994  0.4010476845581141  1.0000
  H   H31       1.0  0.8230866472428372  0.13908167994157355  0.7167633869253517  1.0000
  H   H32       1.0  0.176913352557909  0.639081679778728  0.283236613068673  1.0000
  H   H33       1.0  0.7513391825536068  0.006512668999289422  0.631411586868768  1.0000
  H   H34       1.0  0.2486608172471394  0.5065126688364439  0.36858841312525664  1.0000
  H   H35       1.0  0.9173803010218771  0.6183943060288257  0.493938603537141  1.0000
  H   H36       1.0  0.0826196987788691  0.11839430619167127  0.5060613964568836  1.0000
  H   H37       1.0  0.23018897204334687  0.36689633671257255  0.7909075732391443  1.0000
  H   H38       1.0  0.7698110277573994  0.8668963365497269  0.20909242675488035  1.0000
  H   H39       1.0  0.29475584767150226  0.08653004196349548  0.5671538886965162  1.0000
  H   H40       1.0  0.705244152129244  0.5865300418006499  0.43284611129750844  1.0000
  H   H41       1.0  0.5032762868803988  0.9568425008273818  0.6358549673201698  1.0000
  H   H42       1.0  0.4967237138454548  0.4568425009902273  0.36414503267505544  1.0000
  H   H43       1.0  0.5481199846648386  0.08525641048473909  0.9338689024540291  1.0000
  H   H44       1.0  0.4518800151359076  0.5852564103218936  0.06613109753999555  1.0000
  H   H45       1.0  0.3363699031209336  0.20706256342764714  0.8670164677600976  1.0000
  H   H46       1.0  0.66363009760492  0.7070625632648015  0.13298353223512785  1.0000
  H   H47       1.0  0.9509754769847644  0.35098168971381993  0.6563341879789991  1.0000
  H   H48       1.0  0.04902452281598183  0.8509816895509744  0.3436658120150255  1.0000
  H   H49       1.0  0.11090911389852062  0.5511021775945271  0.8185044071630204  1.0000
  H   H50       1.0  0.8890908859022255  0.05110217775737267  0.18149559283100408  1.0000
  H   H51       1.0  0.9393876051808061  0.5690270695839141  0.7460596953930566  1.0000
  H   H52       1.0  0.060612394619940065  0.06902706974675961  0.25394030460096806  1.0000
  H   H53       1.0  0.7768042809745704  0.39916898983800625  0.7594345617741822  1.0000
  H   H54       1.0  0.2231957188261758  0.8991689906840241  0.24056543821984241  1.0000
  H   H55       1.0  0.7179303181691923  0.24150384905588507  0.8713754693142781  1.0000
  H   H56       1.0  0.2820696816315539  0.7415038488930394  0.1286245306797465  1.0000
  H   H57       1.0  0.8945902307186874  0.1478178071141388  0.022328538244156898  1.0000
  H   H58       1.0  0.10540976908205872  0.6478178069512933  0.9776714617498677  1.0000
  H   H59       1.0  0.12981446800895544  0.21611470292385163  0.06165996124786319  1.0000
  H   H60       1.0  0.8701855317917909  0.7161147027610061  0.9383400387461616  1.0000
  H   H61       1.0  0.18721937500098157  0.3791791089054456  0.9522562706756296  1.0000
  H   H62       1.0  0.812780625724872  0.8791791087426002  0.04774372931959566  1.0000
  C   C1        1.0  0.32528270842347995  0.7642625613721075  0.8336033418280585  1.0000
  C   C2        1.0  0.6747172913772661  0.26426256052608965  0.16639665816596597  1.0000
  C   C3        1.0  0.20074442773966203  0.8416550433786515  0.7897848768230266  1.0000
  C   C4        1.0  0.7992555729861915  0.34165504354149706  0.2102151231721987  1.0000
  C   C5        1.0  0.1482384224318882  0.9118527356195909  0.8519740139489678  1.0000
  C   C6        1.0  0.851761577368858  0.4118527357824364  0.14802598604505682  1.0000
  C   C7        1.0  0.0314702816344173  0.9854939811694657  0.8109335902856701  1.0000
  C   C8        1.0  0.9685297181663288  0.48549398133231125  0.18906640970835445  1.0000
  C   C9        1.0  0.9630045215469492  0.9898497346050217  0.7072592516610382  1.0000
  C   C10       1.0  0.03699547825379708  0.48984973476786714  0.29274074833298647  1.0000
  C   C11       1.0  0.014610545219310333  0.9171000266512773  0.6455725755678111  1.0000
  C   C12       1.0  0.9853894545814358  0.41710002681412295  0.35442742442621356  1.0000
  C   C13       1.0  0.1326065162259866  0.8461895694194427  0.6857102656646732  1.0000
  C   C14       1.0  0.8673934835747595  0.34618956958228836  0.31428973432935137  1.0000
  C   C15       1.0  0.4688516112544089  0.49398845041978123  0.8939591393947183  1.0000
  C   C16       1.0  0.5311483885463373  0.9939884502569356  0.10604086059930629  1.0000
  C   C17       1.0  0.4727518165974859  0.5923916993442133  0.8127814104463327  1.0000
  C   C18       1.0  0.5272481832032604  0.09239169950705889  0.18721858954769197  1.0000
  C   C19       1.0  0.4927231672015912  0.5141425228554257  0.7262341788400987  1.0000
  C   C20       1.0  0.5072768325991549  0.01414252301827121  0.27376582115392606  1.0000
  C   C21       1.0  0.5239732864675821  0.606321700251245  0.6539423490740883  1.0000
  C   C22       1.0  0.4760267133331641  0.10632170041409057  0.34605765091993623  1.0000
  C   C23       1.0  0.6541286857543205  0.6507356092793621  0.674696530621404  1.0000
  C   C24       1.0  0.3458713140464256  0.1507356094422077  0.3253034693726206  1.0000
  C   C25       1.0  0.6846883250426787  0.7363753535397972  0.6089202496151059  1.0000
  C   C26       1.0  0.31531167475806743  0.23637535269377938  0.39107975037891873  1.0000
  C   C27       1.0  0.5844558089022188  0.781174998447272  0.5217706371761415  1.0000
  C   C28       1.0  0.41554419182363495  0.2811749986101176  0.47822936281908385  1.0000
  C   C29       1.0  0.45392791193788806  0.7390507784631947  0.5008640382960784  1.0000
  C   C30       1.0  0.5460720878628582  0.23905077862604013  0.4991359616979463  1.0000
  C   C31       1.0  0.4241052808769576  0.651672751534848  0.5662673163312634  1.0000
  C   C32       1.0  0.5758947189237886  0.1516727516976936  0.43373268366276124  1.0000
  C   C33       1.0  0.8392309872673885  0.07160251832884247  0.6617321159371339  1.0000
  C   C34       1.0  0.1607690125333577  0.5716025191748603  0.3382678840568908  1.0000
  C   C35       1.0  0.17711313037091836  0.2390557271008242  0.6687005215309035  1.0000
  C   C36       1.0  0.8228868703549352  0.7390557279468419  0.3312994784643217  1.0000
  C   C37       1.0  0.301075726636743  0.15917921567448667  0.7112884025501232  1.0000
  C   C38       1.0  0.6989242731640032  0.6591792155116412  0.28871159744390157  1.0000
  C   C39       1.0  0.3488347938066252  0.08619115265428998  0.6474843611092834  1.0000
  C   C40       1.0  0.651165205994121  0.5861911524914444  0.3525156388847411  1.0000
  C   C41       1.0  0.4665851815572526  0.013554116578390847  0.6855111483328011  1.0000
  C   C42       1.0  0.533414819168601  0.5135541164155453  0.3144888516624242  1.0000
  C   C43       1.0  0.5376780296362444  0.015116976067424338  0.7884870034599951  1.0000
  C   C44       1.0  0.4623219701645018  0.5151169759045787  0.21151299653402952  1.0000
  C   C45       1.0  0.49173615784010666  0.08584408348095625  0.8537939850580293  1.0000
  C   C46       1.0  0.5082638419606396  0.5858440833181107  0.14620601493599544  1.0000
  C   C47       1.0  0.37278889925082526  0.15601881802726042  0.8148936929731063  1.0000
  C   C48       1.0  0.627211100549921  0.6560188178644148  0.1851063070209184  1.0000
  C   C49       1.0  0.03998674027296917  0.5141087985710056  0.6084302141878261  1.0000
  C   C50       1.0  0.9600132595277769  0.01410879873385112  0.3915697858061985  1.0000
  C   C51       1.0  0.0368716621470037  0.41718370093239265  0.690763935247789  1.0000
  C   C52       1.0  0.9631283376537425  0.917183700769547  0.3092360647462357  1.0000
  C   C53       1.0  0.019152721896505655  0.49510955487362973  0.778355967479606  1.0000
  C   C54       1.0  0.9808472779042405  0.9951095547107841  0.2216440325144186  1.0000
  C   C55       1.0  0.9855838043181958  0.4011243637593177  0.8486374243369187  1.0000
  C   C56       1.0  0.0144161954825504  0.9011243646053355  0.15136257565710595  1.0000
  C   C57       1.0  0.8539169402749074  0.3606836966146994  0.8269449110153022  1.0000
  C   C58       1.0  0.14608305952583878  0.8606836964518539  0.17305508897872235  1.0000
  C   C59       1.0  0.8209372740515477  0.27115540959420964  0.8893577713425321  1.0000
  C   C60       1.0  0.1790627257491986  0.7711554094313641  0.1106422286514924  1.0000
  C   C61       1.0  0.920038380775238  0.21905358847843154  0.9742205990944325  1.0000
  C   C62       1.0  0.07996161902550804  0.719053588315586  0.025779400899592075  1.0000
  C   C63       1.0  0.051663278888378905  0.2577152976021632  0.996184341949647  1.0000
  C   C64       1.0  0.9483367209123673  0.7577152974393176  0.00381565804437749  1.0000
  C   C65       1.0  0.08428826187098176  0.3486339193972437  0.9341479449341888  1.0000
  C   C66       1.0  0.9157117388548718  0.8486339192343981  0.06585205506103649  1.0000
  N   N1        1.0  0.3529059326435724  0.6717950750405326  0.7750302751350389  1.0000
  N   N2        1.0  0.6470940671571739  0.1717950752033781  0.22496972485898584  1.0000
  N   N3        1.0  0.15513526447962453  0.3351942402075791  0.7272074734646357  1.0000
  N   N4        1.0  0.8448647353211216  0.8351942400447335  0.27279252652938896  1.0000
  O   O1        1.0  0.40588573115327187  0.779876240217655  0.9223888798081669  1.0000
  O   O2        1.0  0.5941142686474744  0.2798762403805006  0.07761112018585778  1.0000
  O   O3        1.0  0.5885732924228647  0.4612652177313469  0.9548759828324295  1.0000
  O   O4        1.0  0.41142670737788156  0.9612652175685013  0.045124017161595135  1.0000
  O   O5        1.0  0.3642492616144608  0.4495807640608726  0.8985269012632403  1.0000
  O   O6        1.0  0.6357507391113928  0.9495807638980271  0.10147309873198511  1.0000
  O   O7        1.0  0.09323417625184309  0.22244592482113654  0.5812981583910943  1.0000
  O   O8        1.0  0.9067658244740106  0.7224459246582909  0.4187018416041309  1.0000
  O   O9        1.0  0.9194398193518477  0.5493541836079059  0.5500168600346308  1.0000
  O   O10       1.0  0.08056018044889836  0.049354183770751466  0.4499831399593939  1.0000
  O   O11       1.0  0.14381734164151527  0.554187609632013  0.6002407560444479  1.0000
  O   O12       1.0  0.8561826590843384  0.054187608785995114  0.39975924395077744  1.0000
  Cl  Cl1       1.0  0.685795782275174  0.9283420271531211  0.8369227803482471  1.0000
  Cl  Cl2       1.0  0.31420421845067964  0.42834202731596666  0.1630772196469783  1.0000
