data_image0
_chemical_formula_structural       H66C60N4O12Cl2
_chemical_formula_sum              "H66 C60 N4 O12 Cl2"
_cell_length_a       10.718053480790324
_cell_length_b       9.711606359420365
_cell_length_c       14.409834928391518
_cell_angle_alpha    90.0
_cell_angle_beta     111.66466412814368
_cell_angle_gamma    90.0

_space_group_name_H-M_alt    "P 1"
_space_group_IT_number       1

loop_
  _space_group_symop_operation_xyz
  'x, y, z'

loop_
  _atom_site_type_symbol
  _atom_site_label
  _atom_site_symmetry_multiplicity
  _atom_site_fract_x
  _atom_site_fract_y
  _atom_site_fract_z
  _atom_site_occupancy
  H   H1        1.0  0.409461405463289  0.364063786066698  0.9980642073135533  1.0000
  H   H2        1.0  0.5905385941828144  0.8640637860965404  0.0019357922772014968  1.0000
  H   H3        1.0  0.43968375893301515  0.6295688986682653  0.7088891096406279  1.0000
  H   H4        1.0  0.5603162407130883  0.12956889863842283  0.29111088995012685  1.0000
  H   H5        1.0  0.7572769898664163  0.8544573073589109  0.9417273738328724  1.0000
  H   H6        1.0  0.242723009779687  0.35445730732906844  0.05827262575788248  1.0000
  H   H7        1.0  0.9067791503393807  0.9867443464390943  0.8782037886823348  1.0000
  H   H8        1.0  0.09322084967800547  0.4867443474389476  0.12179621165513811  1.0000
  H   H9        1.0  0.6187310060090078  0.9461007376073666  0.5777004861812759  1.0000
  H   H10       1.0  0.3812689945698381  0.4461007375775243  0.4222995134089497  1.0000
  H   H11       1.0  0.4669703868517539  0.8181142321829246  0.6402109561668952  1.0000
  H   H12       1.0  0.5330296127943496  0.3181142321530822  0.3597890434238597  1.0000
  H   H13       1.0  0.28444731586014094  0.6430551248550335  0.8399832102156654  1.0000
  H   H14       1.0  0.7155526841572452  0.1430551248251911  0.16001679012180758  1.0000
  H   H15       1.0  0.2917566135621044  0.4437635248487584  0.6773087757186073  1.0000
  H   H16       1.0  0.7082433864552816  0.9437635248786007  0.32269122461886557  1.0000
  H   H17       1.0  0.1823178900567484  0.42592925690275646  0.7431889419856428  1.0000
  H   H18       1.0  0.817682109589355  0.9259292569325989  0.25681105760511197  1.0000
  H   H19       1.0  0.2576588216105457  0.6402220178507209  0.5540704275681904  1.0000
  H   H20       1.0  0.7423411780355578  0.14022201782087856  0.4459295720225644  1.0000
  H   H21       1.0  0.10245091426562732  0.8154675093804639  0.44797141883644603  1.0000
  H   H22       1.0  0.8975490853804761  0.3154675103803173  0.5520285807543087  1.0000
  H   H23       1.0  0.890993315126859  0.8726235399542907  0.4731148037817064  1.0000
  H   H24       1.0  0.10900668451924447  0.37262353992444824  0.5268851958090484  1.0000
  H   H25       1.0  0.8363696412362392  0.7542969143198691  0.6066403909617598  1.0000
  H   H26       1.0  0.16363035840986423  0.2542969142900268  0.39335960862899505  1.0000
  H   H27       1.0  0.9956160743386534  0.5841483643431562  0.7164562849920696  1.0000
  H   H28       1.0  0.0043839253074500475  0.0841483643133138  0.2835437145986854  1.0000
  H   H29       1.0  0.5768359144379248  0.6104011705797566  0.48461991504806284  1.0000
  H   H30       1.0  0.4231640855794613  0.11040117054991429  0.5153800852894102  1.0000
  H   H31       1.0  0.5756167832629893  0.36398414218788183  0.7916689242780486  1.0000
  H   H32       1.0  0.42438321638311416  0.8639841422177242  0.20833107531270628  1.0000
  H   H33       1.0  0.2613116755990802  0.10760602945838221  0.5751601232165977  1.0000
  H   H34       1.0  0.7386883240470233  0.6076060294882246  0.42483987637415715  1.0000
  H   H35       1.0  0.12879110546583458  0.9749877424567625  0.6513195296927754  1.0000
  H   H36       1.0  0.8712088945515514  0.4749877424269201  0.3486804706446975  1.0000
  H   H37       1.0  0.41949474379613877  0.06610354108692641  0.9435520214644084  1.0000
  H   H38       1.0  0.5805052562212474  0.5661035411167687  0.05644797887306451  1.0000
  H   H39       1.0  0.558889929080227  0.1869754335994707  0.868378956909197  1.0000
  H   H40       1.0  0.4411100705658763  0.6869754336293131  0.13162104268155775  1.0000
  H   H41       1.0  0.72282954856036  0.34683952843008764  0.6554915114227575  1.0000
  H   H42       1.0  0.2771704514570262  0.8468395284599299  0.34450848891471547  1.0000
  H   H43       1.0  0.7859553377448146  0.5977452344296288  0.7322596064307367  1.0000
  H   H44       1.0  0.21404466283403104  0.0977452343997864  0.2677403931594889  1.0000
  H   H45       1.0  0.7084496942958671  0.5469807736644146  0.815139217710427  1.0000
  H   H46       1.0  0.291550305721519  0.0469807736345722  0.18486078262704608  1.0000
  H   H47       1.0  0.9456055624151485  0.4020569445972732  0.7870885245486817  1.0000
  H   H48       1.0  0.05439443760223758  0.9020569446271156  0.21291147578879122  1.0000
  H   H49       1.0  0.9722986649677696  0.2783326805022327  0.9460411268821576  1.0000
  H   H50       1.0  0.02770133504961629  0.778332680532075  0.0539588734553153  1.0000
  H   H51       1.0  0.8202772499731954  0.23384977684943434  0.8479351896916445  1.0000
  H   H52       1.0  0.17972274967290808  0.7338497768792767  0.15206480989911025  1.0000
  H   H53       1.0  0.8177354600864368  0.3498673622313904  0.9424155915414593  1.0000
  H   H54       1.0  0.18226453955966662  0.8498673622612328  0.05758440804929552  1.0000
  H   H55       1.0  0.9377200214938506  0.5845916318975318  0.9589394378319894  1.0000
  H   H56       1.0  0.062279978523535506  0.08459163289738529  0.04106056250548352  1.0000
  H   H57       1.0  0.9920268182479368  0.6431455825988389  0.8638243640238745  1.0000
  H   H58       1.0  0.007973181398166641  0.14314558256899657  0.13617563556688023  1.0000
  H   H59       1.0  0.08429087545102357  0.5125899934330859  0.9469193791841762  1.0000
  H   H60       1.0  0.9157091245663626  0.012589993403243497  0.05308062115329677  1.0000
  H   H61       1.0  0.13313024195378884  0.0010851037006640951  0.8852397279147481  1.0000
  H   H62       1.0  0.8668697580635973  0.5010851037305065  0.11476027242272492  1.0000
  H   H63       1.0  0.2519155977398862  0.8662250866294475  0.9123470197807674  1.0000
  H   H64       1.0  0.7480844022774998  0.36622508659960523  0.08765298055670548  1.0000
  H   H65       1.0  0.10909986089584485  0.8655921408764478  0.7974076768200986  1.0000
  H   H66       1.0  0.8909001387502586  0.3655921408466055  0.20259232277065617  1.0000
  C   C1        1.0  0.5130174627378434  0.7483873656956779  0.8357299965178562  1.0000
  C   C2        1.0  0.4869825372795427  0.24838736566583552  0.16427000381961682  1.0000
  C   C3        1.0  0.6016726281345951  0.8262463214663204  0.7959068996881694  1.0000
  C   C4        1.0  0.39832737188279116  0.3262463214364779  0.2040931006493037  1.0000
  C   C5        1.0  0.7258916079111248  0.874882144678186  0.8620605563895017  1.0000
  C   C6        1.0  0.2741083917349787  0.37488214567803946  0.13793944320125304  1.0000
  C   C7        1.0  0.8103660848289312  0.9491535034323778  0.8269898065309946  1.0000
  C   C8        1.0  0.1896339151884548  0.44915350340253546  0.17301019380647836  1.0000
  C   C9        1.0  0.7698497538264473  0.9754864405938942  0.7247264558238997  1.0000
  C   C10       1.0  0.23015024619093877  0.47548644056405187  0.2752735445135732  1.0000
  C   C11       1.0  0.6480127420045544  0.9254421964170733  0.6571709232932066  1.0000
  C   C12       1.0  0.3519872580128316  0.4254421963872309  0.34282907704426624  1.0000
  C   C13       1.0  0.5639119408524391  0.8520716227314108  0.6932725209171933  1.0000
  C   C14       1.0  0.4360880591649471  0.35207162270156844  0.3067274794202798  1.0000
  C   C15       1.0  0.419740955113141  0.47430583052121605  0.8865322845558385  1.0000
  C   C16       1.0  0.5802590445329624  0.9743058305510585  0.11346771503491622  1.0000
  C   C17       1.0  0.3382860410466193  0.5764230388693509  0.8056483965821  1.0000
  C   C18       1.0  0.6617139589707668  0.07642303883950846  0.1943516037553729  1.0000
  C   C19       1.0  0.23586910053689317  0.5015545863095215  0.7149984374605562  1.0000
  C   C20       1.0  0.7641308991092103  0.001554586279679183  0.2850015621301986  1.0000
  C   C21       1.0  0.13844357657892525  0.601164308347075  0.6441221714964414  1.0000
  C   C22       1.0  0.8615564234384608  0.10116430831723273  0.3558778288410316  1.0000
  C   C23       1.0  0.1665373863429715  0.6661452050849104  0.5670756501603983  1.0000
  C   C24       1.0  0.833462613303132  0.16614520505506808  0.4329243494303565  1.0000
  C   C25       1.0  0.07780209985384794  0.7633863838404674  0.5061026278244648  1.0000
  C   C26       1.0  0.9221978997922555  0.2633863838106251  0.49389737176629  1.0000
  C   C27       1.0  0.9592969306287163  0.7959629008749658  0.5202171415208783  1.0000
  C   C28       1.0  0.04070306901738725  0.29596290084512344  0.4797828580698766  1.0000
  C   C29       1.0  0.9293967948436492  0.7305036888277898  0.5957229041563836  1.0000
  C   C30       1.0  0.07060320480245423  0.23050368879794753  0.4042770954343712  1.0000
  C   C31       1.0  0.01872719854644225  0.6345218382973865  0.6571756977941022  1.0000
  C   C32       1.0  0.9812728014709438  0.13452183826754419  0.3428243025433707  1.0000
  C   C33       1.0  0.4996523083437544  0.23734247195513097  0.6695451978112321  1.0000
  C   C34       1.0  0.500347691302349  0.7373424719849734  0.3304548017795227  1.0000
  C   C35       1.0  0.41967562302425554  0.1583447859280596  0.7156920178546231  1.0000
  C   C36       1.0  0.5803243769931304  0.6583447859579019  0.28430798248284983  1.0000
  C   C37       1.0  0.2980476640148264  0.0969594282501583  0.6559262986152038  1.0000
  C   C38       1.0  0.7019523356312771  0.5969594282800007  0.34407370097555107  1.0000
  C   C39       1.0  0.22225939389720495  0.023051439866366392  0.6993309932321998  1.0000
  C   C40       1.0  0.777740606120181  0.5230514398962087  0.300669007105273  1.0000
  C   C41       1.0  0.26455502850929946  0.0101653759786339  0.8033088902113324  1.0000
  C   C42       1.0  0.7354449715080866  0.5101653749787805  0.19669111012614043  1.0000
  C   C43       1.0  0.38542503186010274  0.07340605185345966  0.8626524450983796  1.0000
  C   C44       1.0  0.6145749681572833  0.573406051883302  0.13734755523909337  1.0000
  C   C45       1.0  0.46317422097518707  0.14415927171944803  0.8199092541478987  1.0000
  C   C46       1.0  0.5368257799749414  0.6441592717492904  0.1800907461890451  1.0000
  C   C47       1.0  0.5769955463477073  0.5062998744003323  0.6024859430077364  1.0000
  C   C48       1.0  0.4230044536696787  0.006299874370489994  0.3975140573297366  1.0000
  C   C49       1.0  0.6663512083791283  0.41442103613435716  0.6872663999016548  1.0000
  C   C50       1.0  0.33364879163825767  0.9144210351345037  0.31273360043581805  1.0000
  C   C51       1.0  0.7622999556137837  0.5073635130629497  0.768725287461814  1.0000
  C   C52       1.0  0.23770004403231978  0.007363513033107341  0.23127471212894085  1.0000
  C   C53       1.0  0.8944519117370149  0.440667670374505  0.8358793874033584  1.0000
  C   C54       1.0  0.1055480879090885  0.9406676704043473  0.16412061218739638  1.0000
  C   C55       1.0  0.8747700115169351  0.31860749967471663  0.8961591670730982  1.0000
  C   C56       1.0  0.12522998850045097  0.8186074997045589  0.10384083326437486  1.0000
  C   C57       1.0  0.9825927817306883  0.5510752446024204  0.9051809068281057  1.0000
  C   C58       1.0  0.017407217915415073  0.0510752445725781  0.0948190927626491  1.0000
  C   C59       1.0  0.1849849509238146  0.9305165577715362  0.8516641196552128  1.0000
  C   C60       1.0  0.8150150487222888  0.43051655774169395  0.14833587993554193  1.0000
  N   N1        1.0  0.4260457561496906  0.6597253485037669  0.7729388959741588  1.0000
  N   N2        1.0  0.5739542438676953  0.15972534847392458  0.22706110436331406  1.0000
  N   N3        1.0  0.5862079721644343  0.330977206142841  0.7272613772445555  1.0000
  N   N4        1.0  0.41379202748166904  0.8309772061726832  0.2727386223461992  1.0000
  O   O1        1.0  0.5168523012874793  0.7618646644201097  0.9238041448379422  1.0000
  O   O2        1.0  0.48314769872990676  0.2618646643902673  0.07619585549953065  1.0000
  O   O3        1.0  0.35304741098890946  0.4323531416537569  0.9421393426788942  1.0000
  O   O4        1.0  0.6469525890284765  0.9323531416835992  0.05786065765857867  1.0000
  O   O5        1.0  0.5344518232089729  0.4371648430624196  0.8974123001157578  1.0000
  O   O6        1.0  0.4655481777411555  0.937164843092262  0.10258770022118595  1.0000
  O   O7        1.0  0.49113034585302445  0.22157142087134907  0.5801615931737635  1.0000
  O   O8        1.0  0.508869653793079  0.7215714209011914  0.4198384064169914  1.0000
  O   O9        1.0  0.632020277522803  0.5347071748807923  0.5369120272198686  1.0000
  O   O10       1.0  0.36797972342732543  0.034707174850949936  0.46308797311707517  1.0000
  O   O11       1.0  0.46798017038765233  0.552255671359409  0.5998687038967563  1.0000
  O   O12       1.0  0.5320198296297337  0.052255671329566655  0.40013129644071654  1.0000
  Cl  Cl1       1.0  0.8711919359967034  0.07326747024809069  0.6808435857602763  1.0000
  Cl  Cl2       1.0  0.12880806458214245  0.573267470277933  0.31915641382994936  1.0000
