data_image0
_chemical_formula_structural       H72C84N8O12
_chemical_formula_sum              "H72 C84 N8 O12"
_cell_length_a       9.474415507932271
_cell_length_b       20.967061044553912
_cell_length_c       8.586546057234639
_cell_angle_alpha    90.0
_cell_angle_beta     96.10553166166325
_cell_angle_gamma    90.0

_space_group_name_H-M_alt    "P 1"
_space_group_IT_number       1

loop_
  _space_group_symop_operation_xyz
  'x, y, z'

loop_
  _atom_site_type_symbol
  _atom_site_label
  _atom_site_symmetry_multiplicity
  _atom_site_fract_x
  _atom_site_fract_y
  _atom_site_fract_z
  _atom_site_occupancy
  H   H1        1.0  0.18071270287676566  0.10911647918315466  0.36820325180654734  1.0000
  H   H2        1.0  0.8192872974813757  0.6091164790745579  0.13179674860586857  1.0000
  H   H3        1.0  0.8192872969211106  0.8908835210765903  0.6317967484288367  1.0000
  H   H4        1.0  0.18071270231650036  0.39088352118518704  0.8682032516295155  1.0000
  H   H5        1.0  0.9965770373772408  0.012569043865518392  0.16478548011421879  1.0000
  H   H6        1.0  0.003422962980900751  0.5125690442338601  0.3352145202981971  1.0000
  H   H7        1.0  0.0034229624206354534  0.9874309559172879  0.8352145201211654  1.0000
  H   H8        1.0  0.9965770368169754  0.4874309560258848  0.664785479937187  1.0000
  H   H9        1.0  0.38641612933042946  0.13695109981786635  0.2818997325803801  1.0000
  H   H10       1.0  0.61358387101528  0.6369510997092696  0.21810026666604404  1.0000
  H   H11       1.0  0.6135838715164371  0.86304889996494  0.7181002665999389  1.0000
  H   H12       1.0  0.3864161287701641  0.3630489000735368  0.7818997324033483  1.0000
  H   H13       1.0  0.4833409010091201  0.062409674260946964  0.0015214653553942404  1.0000
  H   H14       1.0  0.5166590993490214  0.5624096746292887  0.4984785350570217  1.0000
  H   H15       1.0  0.516659098788756  0.9375903255218593  0.9984785348799897  1.0000
  H   H16       1.0  0.4833409004488547  0.4375903256304562  0.5015214651783624  1.0000
  H   H17       1.0  0.8360215512893266  0.1319202144793893  0.6970311641402823  1.0000
  H   H18       1.0  0.16397844900970668  0.6319202143707925  0.8029688360289965  1.0000
  H   H19       1.0  0.16397844850854953  0.8680797853034171  0.3029688360951016  1.0000
  H   H20       1.0  0.8360215507881695  0.3680797854120139  0.1970311642063876  1.0000
  H   H21       1.0  0.030131172893413126  0.12077991734839624  0.5302788795660957  1.0000
  H   H22       1.0  0.9698688274056202  0.6207799172397994  0.9697211206031833  1.0000
  H   H23       1.0  0.9698688269044631  0.8792200829113487  0.4697211206692885  1.0000
  H   H24       1.0  0.030131172392256007  0.3792200830199455  0.03027887963220085  1.0000
  H   H25       1.0  0.7618576554732686  0.9903819870545809  0.24038097105526413  1.0000
  H   H26       1.0  0.23814234382345048  0.4903819871631777  0.25961902924622515  1.0000
  H   H27       1.0  0.23814234432460757  0.009618013205164038  0.7596190291801199  1.0000
  H   H28       1.0  0.7618576559744257  0.5096180130965672  0.7403809709891589  1.0000
  H   H29       1.0  0.5798723718189354  0.0057186255024112755  0.4217949079822432  1.0000
  H   H30       1.0  0.42012762746535165  0.5057186253938144  0.0782050911532544  1.0000
  H   H31       1.0  0.42012762796650877  0.9942813747573336  0.5782050910871492  1.0000
  H   H32       1.0  0.5798723723200925  0.4942813743889919  0.9217949079161379  1.0000
  H   H33       1.0  0.7754823178609215  0.26116760896360064  0.3216569753671781  1.0000
  H   H34       1.0  0.22451768249721984  0.7611676093319424  0.17834302504523783  1.0000
  H   H35       1.0  0.22451768299837704  0.7388323908192057  0.6783430249791327  1.0000
  H   H36       1.0  0.7754823173006563  0.23883239092780253  0.8216569751901462  1.0000
  H   H37       1.0  0.5491306032123013  0.20143769176925477  0.2895037364520705  1.0000
  H   H38       1.0  0.45086939714584023  0.701437691660658  0.2104962639603454  1.0000
  H   H39       1.0  0.4508693976469973  0.7985623084904901  0.7104962638942403  1.0000
  H   H40       1.0  0.5491306026520361  0.2985623081221484  0.7895037362750387  1.0000
  H   H41       1.0  0.7289832972571816  0.0837636684639779  0.9469206246084167  1.0000
  H   H42       1.0  0.27101670304185166  0.5837636683553811  0.5530793755608622  1.0000
  H   H43       1.0  0.27101670254069454  0.916236331795767  0.05307937562696745  1.0000
  H   H44       1.0  0.7289832978174469  0.4162363314274252  0.4469206247854485  1.0000
  H   H45       1.0  0.9451004256912526  0.15321865487840713  0.9835782332861357  1.0000
  H   H46       1.0  0.05489957460778055  0.6532186547698103  0.5164217668831431  1.0000
  H   H47       1.0  0.05489957516804585  0.8467813453813379  0.01642176706017487  1.0000
  H   H48       1.0  0.9451004251900955  0.34678134501299607  0.48357823335224104  1.0000
  H   H49       1.0  0.23435346462850493  0.38860212562391344  0.3332643351013048  1.0000
  H   H50       1.0  0.7656465357296365  0.8886021255153166  0.16673566531111111  1.0000
  H   H51       1.0  0.7656465351693712  0.6113978746358315  0.6667356651340792  1.0000
  H   H52       1.0  0.23435346406823962  0.11139787474442837  0.8332643349242731  1.0000
  H   H53       1.0  0.5470797443930717  0.3267984514109942  0.035121227491558785  1.0000
  H   H54       1.0  0.4529202559650696  0.8267984517793359  0.4648787729208571  1.0000
  H   H55       1.0  0.4529202554048044  0.6732015483718122  0.9648787727438254  1.0000
  H   H56       1.0  0.5470797438328066  0.17320154848040903  0.5351212273145269  1.0000
  H   H57       1.0  0.3888157992038128  0.23623150757633424  0.9417021311996371  1.0000
  H   H58       1.0  0.611184200033798  0.7362315074677374  0.5582978688587151  1.0000
  H   H59       1.0  0.6111842005940633  0.7637684926834107  0.05829786903574696  1.0000
  H   H60       1.0  0.38881579976407804  0.26376849279200754  0.44170213137666897  1.0000
  H   H61       1.0  0.15560121877843366  0.22192909059177107  0.0405894255692735  1.0000
  H   H62       1.0  0.8443987805182853  0.7219290904831743  0.45941057473221575  1.0000
  H   H63       1.0  0.8443987810194425  0.7780709096679738  0.9594105746661107  1.0000
  H   H64       1.0  0.15560121927959078  0.2780709092996321  0.5405894255031684  1.0000
  H   H65       1.0  0.566845936873647  0.4191634388493756  0.1742500010133146  1.0000
  H   H66       1.0  0.4331540624230719  0.9191634392177175  0.32574999928817466  1.0000
  H   H67       1.0  0.4331540629242292  0.5808365609334307  0.8257499992220696  1.0000
  H   H68       1.0  0.5668459373748043  0.08083656104202755  0.6742500009472093  1.0000
  H   H69       1.0  0.9982368815582893  0.2606199208553055  0.20680967349865545  1.0000
  H   H70       1.0  0.0017631187998521976  0.7606199207467087  0.2931903269137605  1.0000
  H   H71       1.0  0.0017631193010093158  0.7393800789275008  0.7931903268476553  1.0000
  H   H72       1.0  0.9982368809980239  0.23938007903609768  0.7068096733216236  1.0000
  C   C1        1.0  0.2522636188745191  0.06428155367774269  0.15950997594054941  1.0000
  C   C2        1.0  0.7477363814836223  0.5642815540460844  0.3404900244718665  1.0000
  C   C3        1.0  0.747736380923357  0.9357184461050636  0.8404900242948348  1.0000
  C   C4        1.0  0.25226361937567626  0.4357184462136605  0.6595099758744442  1.0000
  C   C5        1.0  0.1494123996441245  0.0750859668245648  0.27447449714347866  1.0000
  C   C6        1.0  0.8505875996401624  0.5750859667159679  0.2255255019920189  1.0000
  C   C7        1.0  0.8505876001413195  0.9249140334351801  0.7255255019259137  1.0000
  C   C8        1.0  0.14941240014528165  0.4249140330668384  0.7744744970773735  1.0000
  C   C9        1.0  0.022207733723892707  0.0453056300061061  0.2630209430512901  1.0000
  C   C10       1.0  0.9777922655728263  0.5453056303744479  0.23697905725019916  1.0000
  C   C11       1.0  0.9777922660739834  0.9546943697767003  0.736979057184094  1.0000
  C   C12       1.0  0.022207734225049826  0.45469436988529705  0.7630209429851849  1.0000
  C   C13       1.0  0.38258161039252425  0.10288056372880626  0.18540571579010193  1.0000
  C   C14       1.0  0.6174183899531852  0.6028805636202094  0.3145942834563222  1.0000
  C   C15       1.0  0.6174183893929198  0.8971194365309387  0.8145942832792904  1.0000
  C   C16       1.0  0.38258160984469103  0.39711943663953553  0.6854057167790619  1.0000
  C   C17       1.0  0.4912119864258511  0.09742294714835935  0.09617731891616821  1.0000
  C   C18       1.0  0.5087880139322903  0.5974229470397625  0.40382268149624767  1.0000
  C   C19       1.0  0.5087880133720251  0.9025770531113856  0.903822681319216  1.0000
  C   C20       1.0  0.49121198586558584  0.4025770532199824  0.5961773187391364  1.0000
  C   C21       1.0  0.8233359149231114  0.10041254449186884  0.5955576370793509  1.0000
  C   C22       1.0  0.17666408536348982  0.6004125443832721  0.9044423619239362  1.0000
  C   C23       1.0  0.17666408486233268  0.899587455767876  0.40444236199004135  1.0000
  C   C24       1.0  0.8233359154833767  0.39958745539953433  0.09555763725638282  1.0000
  C   C25       1.0  0.9323186682642567  0.09427055970313997  0.5008230302289877  1.0000
  C   C26       1.0  0.06768133203477648  0.5942705595945431  0.9991769699402911  1.0000
  C   C27       1.0  0.06768133259504179  0.9057294400796665  0.499176970117323  1.0000
  C   C28       1.0  0.9323186677630998  0.40572944018826324  0.0008230302950928981  1.0000
  C   C29       1.0  0.9139109073150066  0.05391135923141722  0.36934414542110044  1.0000
  C   C30       1.0  0.08608909196928033  0.5539113591228204  0.13065585371439706  1.0000
  C   C31       1.0  0.08608909247043746  0.9460886410283278  0.6306558536482918  1.0000
  C   C32       1.0  0.9139109078285959  0.44608864065998594  0.869344146520987  1.0000
  C   C33       1.0  0.7840941970310895  0.021392810325055408  0.3416594889066735  1.0000
  C   C34       1.0  0.21590580331461984  0.5213928102164586  0.15834051033975063  1.0000
  C   C35       1.0  0.21590580275435453  0.9786071899346894  0.6583405101627188  1.0000
  C   C36       1.0  0.7840941975322466  0.4786071895663478  0.8416594888405683  1.0000
  C   C37       1.0  0.6811412305777746  0.030395418253696366  0.44342216369803555  1.0000
  C   C38       1.0  0.31885876870651236  0.5303954181450995  0.05657783543746194  1.0000
  C   C39       1.0  0.31885876922010153  0.96960458152911  0.5565778365373485  1.0000
  C   C40       1.0  0.6811412310789318  0.4696045816377068  0.9434221636319303  1.0000
  C   C41       1.0  0.7605259753946709  0.22180999235503235  0.2383311410424655  1.0000
  C   C42       1.0  0.23947402390204803  0.7218099927233741  0.2616688592590238  1.0000
  C   C43       1.0  0.23947402440320517  0.778190007427774  0.7616688591929187  1.0000
  C   C44       1.0  0.760525975895828  0.2781900075363708  0.7383311409763602  1.0000
  C   C45       1.0  0.6347054282025404  0.18765411097145543  0.2216827119262084  1.0000
  C   C46       1.0  0.36529457215560107  0.6876541108628587  0.27831728848620757  1.0000
  C   C47       1.0  0.3652945726567582  0.8123458892882894  0.7783172884201024  1.0000
  C   C48       1.0  0.6347054276422751  0.31234588939688634  0.7216827117491766  1.0000
  C   C49       1.0  0.619234458263829  0.13635242506925344  0.11574436038138829  1.0000
  C   C50       1.0  0.3807655420943125  0.6363524249606567  0.38425564003102763  1.0000
  C   C51       1.0  0.38076554153404724  0.8636475747135529  0.8842556398539958  1.0000
  C   C52       1.0  0.6192344587649861  0.36364757482214977  0.6157443603152831  1.0000
  C   C53       1.0  0.7336748105382355  0.12370563258667633  0.02836727075480705  1.0000
  C   C54       1.0  0.2663251898199059  0.6237056329550181  0.4716327296576089  1.0000
  C   C55       1.0  0.26632519032106305  0.8762943671961301  0.9716327295915036  1.0000
  C   C56       1.0  0.7336748099779702  0.3762943673047269  0.5283672705777752  1.0000
  C   C57       1.0  0.855338899106264  0.1612652408849768  0.051104261806864726  1.0000
  C   C58       1.0  0.1446611012518775  0.6612652407763799  0.4488957386055512  1.0000
  C   C59       1.0  0.14466110069161223  0.8387347593747682  0.9488957384285193  1.0000
  C   C60       1.0  0.8553388996074212  0.33873475900642636  0.5511042617407595  1.0000
  C   C61       1.0  0.18188064753918617  0.30402761533695066  0.19551730752052618  1.0000
  C   C62       1.0  0.8181193528065233  0.8040276152283539  0.304482691725898  1.0000
  C   C63       1.0  0.818119352246258  0.6959723844458556  0.8044826915488662  1.0000
  C   C64       1.0  0.1818806469789209  0.1959723845544525  0.6955173073434944  1.0000
  C   C65       1.0  0.2688463130895343  0.3556688247415106  0.24661590841028438  1.0000
  C   C66       1.0  0.7311536861947527  0.8556688246329138  0.2533840907252132  1.0000
  C   C67       1.0  0.7311536866959099  0.6443311755182344  0.7533840906591079  1.0000
  C   C68       1.0  0.26884631360312344  0.14433117562683112  0.746615909510171  1.0000
  C   C69       1.0  0.3995265160296487  0.3645071530893042  0.18686349551627074  1.0000
  C   C70       1.0  0.6004734832546382  0.8645071529807073  0.3131365036192268  1.0000
  C   C71       1.0  0.6004734837682275  0.6354928466935021  0.8131365047191134  1.0000
  C   C72       1.0  0.3995265165308059  0.13549284680209894  0.6868634954501656  1.0000
  C   C73       1.0  0.44389607222048394  0.32075447940505986  0.07783694535311014  1.0000
  C   C74       1.0  0.5561039270762351  0.820754479296463  0.42216305494837914  1.0000
  C   C75       1.0  0.5561039275773922  0.6792455208546851  0.922163054882274  1.0000
  C   C76       1.0  0.44389607272164106  0.17924552096328192  0.5778369452870049  1.0000
  C   C77       1.0  0.3555809930037987  0.2699656197867682  0.027382216191781095  1.0000
  C   C78       1.0  0.6444190062929203  0.7699656196781713  0.4726177841097082  1.0000
  C   C79       1.0  0.6444190067940775  0.7300343799960382  0.972617784043603  1.0000
  C   C80       1.0  0.3555809935049558  0.230034380104635  0.5273822161256759  1.0000
  C   C81       1.0  0.2244039935236409  0.2610134977129521  0.08397912834968788  1.0000
  C   C82       1.0  0.7755960068220685  0.7610134976043553  0.4160208708967363  1.0000
  C   C83       1.0  0.7755960062618031  0.7389865025467928  0.9160208707197045  1.0000
  C   C84       1.0  0.2244039929633756  0.23898650217845105  0.583979128172656  1.0000
  N   N1        1.0  0.6990705093037882  0.06917123133843847  0.5683592268115188  1.0000
  N   N2        1.0  0.3009294909952451  0.5691712312298417  0.93164077335776  1.0000
  N   N3        1.0  0.30092949049408796  0.9308287689213065  0.43164077342386525  1.0000
  N   N4        1.0  0.6990705088026311  0.43082876902990325  0.068359226877624  1.0000
  N   N5        1.0  0.8696802975745114  0.20943237684427818  0.15487747312700584  1.0000
  N   N6        1.0  0.13031970278363006  0.7094323767356814  0.3451225272854101  1.0000
  N   N7        1.0  0.13031970328478718  0.7905676234154667  0.8451225272193049  1.0000
  N   N8        1.0  0.8696802970142462  0.29056762352406357  0.6548774729499741  1.0000
  O   O1        1.0  0.22896724525483553  0.02625964215156479  0.04787304227864398  1.0000
  O   O2        1.0  0.7710327551033059  0.5262596420429679  0.4521269581337719  1.0000
  O   O3        1.0  0.7710327545430408  0.9737403576312416  0.9521269579567401  1.0000
  O   O4        1.0  0.22896724575599262  0.4737403577398384  0.5478730422125389  1.0000
  O   O5        1.0  0.055808628712556284  0.2982119748072221  0.2559498507746118  1.0000
  O   O6        1.0  0.9441913716455852  0.7982119746986253  0.24405014963780405  1.0000
  O   O7        1.0  0.9441913710853198  0.7017880249755842  0.7440501494607723  1.0000
  O   O8        1.0  0.0558086292137134  0.20178802508418103  0.7559498507085066  1.0000
  O   O9        1.0  0.4804060860531982  0.41551242071968486  0.23651759400465966  1.0000
  O   O10       1.0  0.5195939143049432  0.9155124210880266  0.2634824064077562  1.0000
  O   O11       1.0  0.5195939148061003  0.5844875790631215  0.7634824063416511  1.0000
  O   O12       1.0  0.480406085492933  0.08448757917171834  0.7365175938276277  1.0000
