data_image0
_chemical_formula_structural       H56C56N12O8
_chemical_formula_sum              "H56 C56 N12 O8"
_cell_length_a       10.278537293890421
_cell_length_b       10.251189815625972
_cell_length_c       13.213520566136747
_cell_angle_alpha    90.0
_cell_angle_beta     106.11999013382625
_cell_angle_gamma    90.0

_space_group_name_H-M_alt    "P 1"
_space_group_IT_number       1

loop_
  _space_group_symop_operation_xyz
  'x, y, z'

loop_
  _atom_site_type_symbol
  _atom_site_label
  _atom_site_symmetry_multiplicity
  _atom_site_fract_x
  _atom_site_fract_y
  _atom_site_fract_z
  _atom_site_occupancy
  H   H1        1.0  0.427417029169177  0.8907409836545321  0.06335409997830281  1.0000
  H   H2        1.0  0.5725829704866979  0.3907409834411896  0.43664590035586415  1.0000
  H   H3        1.0  0.5725829704806913  0.10925901579665627  0.93664590059157  1.0000
  H   H4        1.0  0.42741702917415325  0.6092590160099988  0.5633540994596247  1.0000
  H   H5        1.0  0.6158695086645858  0.11751761031326072  0.2928692606344294  1.0000
  H   H6        1.0  0.38413049099128915  0.6175176105266031  0.20713073969973758  1.0000
  H   H7        1.0  0.38413049099626534  0.8824823891379276  0.7071307391810594  1.0000
  H   H8        1.0  0.6158695086695619  0.3824823899000817  0.7928692601157512  1.0000
  H   H9        1.0  0.47556105855753833  0.12287865044503435  0.1782161214142107  1.0000
  H   H10       1.0  0.5244389411093195  0.6228786506583768  0.32178387816557225  1.0000
  H   H11       1.0  0.5244389411033129  0.8771213499816505  0.8217838784012781  1.0000
  H   H12       1.0  0.4755610585515316  0.3771213497683081  0.6782161216499165  1.0000
  H   H13       1.0  0.6390103306649063  0.1739706982385146  0.1724606145620864  1.0000
  H   H14       1.0  0.3609896689909686  0.6739706974763605  0.3275393857720806  1.0000
  H   H15       1.0  0.3609896689959448  0.8260293021881704  0.8275393852534024  1.0000
  H   H16       1.0  0.6390103306698826  0.3260293019748278  0.6724606140434082  1.0000
  H   H17       1.0  0.6375506010055181  0.6156306978513042  0.008817993557510695  1.0000
  H   H18       1.0  0.362449399673999  0.11563069763796177  0.4911820062491921  1.0000
  H   H19       1.0  0.3624493996679924  0.38436930257538066  0.991182006484898  1.0000
  H   H20       1.0  0.6375506009995114  0.884369302788723  0.5088179937932165  1.0000
  H   H21       1.0  0.46680736993802974  0.6374601482882568  0.013285887261161361  1.0000
  H   H22       1.0  0.5331926307414873  0.13746014807491433  0.48671411254554137  1.0000
  H   H23       1.0  0.5331926307354806  0.3625398521384281  0.9867141127812474  1.0000
  H   H24       1.0  0.4668073699320231  0.8625398523517706  0.5132858874968672  1.0000
  H   H25       1.0  0.586178281896879  0.5545057795472003  0.11686453670875208  1.0000
  H   H26       1.0  0.4138217187716552  0.05450577933385783  0.38313546385233477  1.0000
  H   H27       1.0  0.41382171876564855  0.44549422087948465  0.8831354640880407  1.0000
  H   H28       1.0  0.5861782819018552  0.945494221092827  0.616864536190074  1.0000
  H   H29       1.0  0.9356287225214379  0.7633375257642883  0.2517622591823311  1.0000
  H   H30       1.0  0.06437127713443724  0.2633375255509458  0.2482377411518359  1.0000
  H   H31       1.0  0.06437127712843062  0.23666247466239662  0.7482377413875418  1.0000
  H   H32       1.0  0.935628722526414  0.7366624748757391  0.751762258663653  1.0000
  H   H33       1.0  0.8628822786672046  0.6544500258666153  0.14719955693704878  1.0000
  H   H34       1.0  0.1371177209886703  0.1544500266287693  0.35280044339711814  1.0000
  H   H35       1.0  0.1371177209936465  0.3455499735845732  0.8528004428784401  1.0000
  H   H36       1.0  0.8628822786611982  0.8455499737979155  0.6471995571727546  1.0000
  H   H37       1.0  0.887084099806894  0.44168259113671665  0.2084961633804343  1.0000
  H   H38       1.0  0.11291589985996378  0.9416825903745625  0.2915038361993486  1.0000
  H   H39       1.0  0.11291589985395714  0.5583174092899683  0.7915038364350545  1.0000
  H   H40       1.0  0.8870840998008873  0.0583174090766258  0.7084961636161402  1.0000
  H   H41       1.0  0.8880146644137658  0.273906907442094  0.344267944635819  1.0000
  H   H42       1.0  0.11198533626575123  0.7739069076554365  0.1557320551708838  1.0000
  H   H43       1.0  0.1119853362597446  0.7260930920090943  0.6557320554065896  1.0000
  H   H44       1.0  0.8880146644077591  0.22609309277124842  0.8442679448715249  1.0000
  H   H45       1.0  0.7799049280041035  0.5694977446521422  0.5392641087653759  1.0000
  H   H46       1.0  0.22009507165074108  0.06949774443879969  0.9607358912858188  1.0000
  H   H47       1.0  0.2200950716567477  0.43050225577454276  0.460735891050113  1.0000
  H   H48       1.0  0.77990492801011  0.9305022559878852  0.03926410852967001  1.0000
  H   H49       1.0  0.7785448828464928  0.7366294474900317  0.40320506196913763  1.0000
  H   H50       1.0  0.221455116820365  0.23662944727668928  0.0967949376106453  1.0000
  H   H51       1.0  0.22145511681435837  0.2633705529366532  0.5967949378463511  1.0000
  H   H52       1.0  0.7785448828404861  0.7633705521744991  0.9032050622048435  1.0000
  H   H53       1.0  0.8454002153107131  0.9719914701815089  0.3059006838399782  1.0000
  H   H54       1.0  0.1545997843561447  0.47199146996816643  0.19409931573980474  1.0000
  H   H55       1.0  0.15459978435013805  0.028008530245175974  0.6940993159755107  1.0000
  H   H56       1.0  0.8454002153047064  0.5280085304585184  0.805900684075684  1.0000
  C   C1        1.0  0.6132976880534042  0.9662121625044924  0.18010891267673748  1.0000
  C   C2        1.0  0.3867023116134536  0.46621216326664655  0.3198910869030455  1.0000
  C   C3        1.0  0.386702311607447  0.033787836946695904  0.8198910871387513  1.0000
  C   C4        1.0  0.6132976880473975  0.5337878371600383  0.6801089129124434  1.0000
  C   C5        1.0  0.5303739719154501  0.8760237203208624  0.11117669157321299  1.0000
  C   C6        1.0  0.46962602875308423  0.37602372010752  0.3888233089878739  1.0000
  C   C7        1.0  0.4696260287470775  0.12397628010582246  0.8888233092235797  1.0000
  C   C8        1.0  0.5303739719204262  0.623976280319165  0.6111766910545348  1.0000
  C   C9        1.0  0.607215905052047  0.7629178944749092  0.11593946538861458  1.0000
  C   C10       1.0  0.39278409460382796  0.2629178952370633  0.3840605349455524  1.0000
  C   C11       1.0  0.3927840945978214  0.2370821049762791  0.8840605351812582  1.0000
  C   C12       1.0  0.6072159050570233  0.7370821051896216  0.6159394648699364  1.0000
  C   C13       1.0  0.584172766493434  0.10246227305233656  0.20718030516565739  1.0000
  C   C14       1.0  0.41582723316244097  0.6024622722901825  0.2928196951685096  1.0000
  C   C15       1.0  0.4158272331674171  0.8975377273743482  0.7928196946498314  1.0000
  C   C16       1.0  0.5841727664874273  0.3975377271610059  0.7071803054013632  1.0000
  C   C17       1.0  0.5727938610552745  0.6358610451309811  0.06066794241612922  1.0000
  C   C18       1.0  0.4272061386006003  0.13586104491763865  0.43933205791803775  1.0000
  C   C19       1.0  0.42720613860557655  0.3641389552957038  0.9393320573993595  1.0000
  C   C20       1.0  0.5727938610602508  0.8641389545335497  0.5606679418974511  1.0000
  C   C21       1.0  0.847025698726864  0.7015706205183398  0.21747173238323073  1.0000
  C   C22       1.0  0.15297430195265302  0.20157062030499745  0.2825282674234721  1.0000
  C   C23       1.0  0.15297430194664638  0.29842937990834495  0.7825282676591779  1.0000
  C   C24       1.0  0.8470256987208573  0.7984293801216874  0.7174717326189366  1.0000
  C   C25       1.0  0.8354879970450807  0.6001944955327407  0.2976222304090874  1.0000
  C   C26       1.0  0.1645120026217772  0.10019449531939831  0.20237776917069553  1.0000
  C   C27       1.0  0.16451200261577056  0.3998055048939441  0.7023777694064015  1.0000
  C   C28       1.0  0.8354879970390738  0.8998055051072866  0.7976222306447932  1.0000
  C   C29       1.0  0.8652543496029889  0.4699037074367014  0.2813967102195738  1.0000
  C   C30       1.0  0.13474565006386882  0.9699037076500437  0.21860328936020915  1.0000
  C   C31       1.0  0.1347456500578622  0.5300962929899834  0.718603289595915  1.0000
  C   C32       1.0  0.8652543495969822  0.030096292776641023  0.7813967104552797  1.0000
  C   C33       1.0  0.8657413499111934  0.37549135068522316  0.3571342091483053  1.0000
  C   C34       1.0  0.1342586507683237  0.8754913508985657  0.14286579065839752  1.0000
  C   C35       1.0  0.13425865076231708  0.6245086497414618  0.6428657908941033  1.0000
  C   C36       1.0  0.8657413499051867  0.1245086495281193  0.8571342093840111  1.0000
  C   C37       1.0  0.8364449845000226  0.4123045701053492  0.45085298763656767  1.0000
  C   C38       1.0  0.16355501616851162  0.9123045693431951  0.049147012924519215  1.0000
  C   C39       1.0  0.1635550161734878  0.5876954303213358  0.5491470124058411  1.0000
  C   C40       1.0  0.8364449845049987  0.08769543010799329  0.9508529871178895  1.0000
  C   C41       1.0  0.8034733588964187  0.5425882643906886  0.46669731277775484  1.0000
  C   C42       1.0  0.1965266417830984  0.04258826515284274  0.03330268702894798  1.0000
  C   C43       1.0  0.19652664177709175  0.45741173506049965  0.5333026872646538  1.0000
  C   C44       1.0  0.8034733588904119  0.9574117352738423  0.9666973130134606  1.0000
  C   C45       1.0  0.8020195622799362  0.6354404559040187  0.38980788085038326  1.0000
  C   C46       1.0  0.197980438388598  0.13544045666617266  0.11019211971070356  1.0000
  C   C47       1.0  0.19798043839357418  0.3645595435471698  0.6101921191920253  1.0000
  C   C48       1.0  0.8020195622849123  0.8645595437605121  0.8898078803317051  1.0000
  C   C49       1.0  0.8374713063713993  0.31804874445210046  0.5300204001175244  1.0000
  C   C50       1.0  0.16252869328344516  0.818048744665443  0.9699795999336702  1.0000
  C   C51       1.0  0.16252869328945183  0.6819512549990878  0.4699795996979644  1.0000
  C   C52       1.0  0.8374713063664232  0.18195125576124196  0.03002040063620261  1.0000
  C   C53       1.0  0.9341001434875335  0.9786089351997252  0.4590815492221315  1.0000
  C   C54       1.0  0.06589985616834147  0.4786089349863828  0.04091845111203545  1.0000
  C   C55       1.0  0.06589985617331766  0.021391065226959684  0.5409184505933573  1.0000
  C   C56       1.0  0.9341001434925098  0.5213910654403021  0.9590815487034533  1.0000
  N   N1        1.0  0.7303454426818652  0.7884877790165501  0.18483085578440023  1.0000
  N   N2        1.0  0.2696545569849925  0.2884877788032076  0.3151691437953827  1.0000
  N   N3        1.0  0.26965455697898594  0.2115122204346383  0.8151691440310885  1.0000
  N   N4        1.0  0.7303454426758587  0.7115122206479807  0.6848308560201062  1.0000
  N   N5        1.0  0.7348992812061863  0.911619909306045  0.2241017469061945  1.0000
  N   N6        1.0  0.2651007184496886  0.41161990909270246  0.2758982534279725  1.0000
  N   N7        1.0  0.26510071845466476  0.08838009014514346  0.7758982529092943  1.0000
  N   N8        1.0  0.7348992812001798  0.5883800903584858  0.7241017471419003  1.0000
  N   N9        1.0  0.8360341894069052  0.2417769053717063  0.5954840194226648  1.0000
  N   N10       1.0  0.1639658112605987  0.7417769055850487  0.9045159808554498  1.0000
  N   N11       1.0  0.16396581126660534  0.7582230940794821  0.4045159806197438  1.0000
  N   N12       1.0  0.8360341894129116  0.2582230938661396  0.09548401918695891  1.0000
  O   O1        1.0  0.8472790139017434  0.91414085667555  0.48463793749747847  1.0000
  O   O2        1.0  0.15272098576511442  0.4141408574377041  0.015362062082304473  1.0000
  O   O3        1.0  0.1527209857591078  0.08585914277563833  0.5153620623180103  1.0000
  O   O4        1.0  0.8472790138957368  0.5858591429889808  0.9846379377331842  1.0000
  O   O5        1.0  0.9288270192580373  0.01831649139047128  0.3634710465220223  1.0000
  O   O6        1.0  0.07117298039783782  0.5183164916038138  0.13652895381214467  1.0000
  O   O7        1.0  0.07117298040281397  0.9816835090362136  0.6365289532934665  1.0000
  O   O8        1.0  0.9288270192630135  0.4816835088228712  0.863471046003344  1.0000
