data_image0
_chemical_formula_structural       H32C52N4O4Cl4I8
_chemical_formula_sum              "H32 C52 N4 O4 Cl4 I8"
_cell_length_a       10.182012457626147
_cell_length_b       12.230073069491127
_cell_length_c       12.31735249619461
_cell_angle_alpha    112.61785861986782
_cell_angle_beta     101.46556299200074
_cell_angle_gamma    98.4791492485904

_space_group_name_H-M_alt    "P 1"
_space_group_IT_number       1

loop_
  _space_group_symop_operation_xyz
  'x, y, z'

loop_
  _atom_site_type_symbol
  _atom_site_label
  _atom_site_symmetry_multiplicity
  _atom_site_fract_x
  _atom_site_fract_y
  _atom_site_fract_z
  _atom_site_occupancy
  H   H1        1.0  0.5070858004759824  0.8921598265145063  0.2561103658809793  1.0000
  H   H2        1.0  0.492914199667896  0.10784017319303627  0.7438896338490233  1.0000
  H   H3        1.0  0.5293495263435543  0.051103043532154196  0.17604253980341733  1.0000
  H   H4        1.0  0.47065047281841077  0.948896956173157  0.8239574599290581  1.0000
  H   H5        1.0  0.32214989578540454  0.0644516748702561  0.038414106562874625  1.0000
  H   H6        1.0  0.6778501046507568  0.9355483252288361  0.9615858940832279  1.0000
  H   H7        1.0  0.09526336394246336  0.9239591992636296  0.9836301992023403  1.0000
  H   H8        1.0  0.9047366355117846  0.07604080083323114  0.016369801446234823  1.0000
  H   H9        1.0  0.8103174738867203  0.5801397546480923  0.0342199417937299  1.0000
  H   H10       1.0  0.18968252654944107  0.41986024545099987  0.9657800588523725  1.0000
  H   H11       1.0  0.8016401239496425  0.44109797593960964  0.13619917232782297  1.0000
  H   H12       1.0  0.19835987619423595  0.558902023767933  0.8638008274021797  1.0000
  H   H13       1.0  0.014510367107156788  0.4501091563474204  0.2846533342121425  1.0000
  H   H14       1.0  0.9854896333290045  0.5498908437516717  0.7153466664339598  1.0000
  H   H15       1.0  0.23726605690289143  0.5898957639781766  0.3224125750548925  1.0000
  H   H16       1.0  0.762733943240987  0.4101042357293661  0.6775874246751101  1.0000
  H   H17       1.0  0.13287270749029398  0.23936761451032318  0.24719009843516382  1.0000
  H   H18       1.0  0.8671272918137639  0.7606323860211158  0.7528099012960031  1.0000
  H   H19       1.0  0.379536505158354  0.3584760328478462  0.3419997858723677  1.0000
  H   H20       1.0  0.6204634951276171  0.6415239676858242  0.6580002138563266  1.0000
  H   H21       1.0  0.5373195571619399  0.30498223204069813  0.48634246810452425  1.0000
  H   H22       1.0  0.4626804429819385  0.6950177676668445  0.5136575316254783  1.0000
  H   H23       1.0  0.45452400886266237  0.13021081032610232  0.5285301739189867  1.0000
  H   H24       1.0  0.545475991281216  0.8697891893814401  0.4714698258110158  1.0000
  H   H25       1.0  0.056643039368706  0.7877346349841515  0.4600471069546812  1.0000
  H   H26       1.0  0.9433569609172654  0.21226536554951891  0.539952892774013  1.0000
  H   H27       1.0  0.8078406824012944  0.6853571093026183  0.366705227924985  1.0000
  H   H28       1.0  0.19215931774258393  0.3146428904049242  0.6332947718050176  1.0000
  H   H29       1.0  0.659897362997296  0.7523742646291436  0.22920713952603164  1.0000
  H   H30       1.0  0.34010263714658245  0.24762573507839905  0.770792860203971  1.0000
  H   H31       1.0  0.7609387957955001  0.9256233758861049  0.18836835463868945  1.0000
  H   H32       1.0  0.2390612043483783  0.07437662382143764  0.8116316450913131  1.0000
  C   C1        1.0  0.28886024578777847  0.8203903280633702  0.16750103614432243  1.0000
  C   C2        1.0  0.7111397543560999  0.17960967164417233  0.8324989635856801  1.0000
  C   C3        1.0  0.41883536638475694  0.9001377783121921  0.1962134074016748  1.0000
  C   C4        1.0  0.5811646337591215  0.09986222139535061  0.8037865923283278  1.0000
  C   C5        1.0  0.42959347866970526  0.9872590433457369  0.1510358984321917  1.0000
  C   C6        1.0  0.5704065214741733  0.012740956361805824  0.8489641012978111  1.0000
  C   C7        1.0  0.3119664053443215  0.9953017011415398  0.0736012742070689  1.0000
  C   C8        1.0  0.6880335950918398  0.004698298957552288  0.9263987264390335  1.0000
  C   C9        1.0  0.18491586513985844  0.917834945232298  0.04385732496652638  1.0000
  C   C10       1.0  0.8150841340221064  0.082165054473013  0.9561426747659489  1.0000
  C   C11       1.0  0.1682423359805281  0.8284106843109055  0.09049243811057352  1.0000
  C   C12       1.0  0.8317576641633504  0.17158931539663705  0.9095075616194291  1.0000
  C   C13       1.0  0.040398219114965425  0.7477469944243681  0.06490219343403344  1.0000
  C   C14       1.0  0.9596017811710058  0.2522530061093021  0.9350978062946608  1.0000
  C   C15       1.0  0.029489749114039062  0.6638837707866697  0.1170893425764175  1.0000
  C   C16       1.0  0.9705102503402089  0.33611622931019114  0.8829106580721576  1.0000
  C   C17       1.0  0.9035303037880837  0.5808989469970754  0.09605458355695926  1.0000
  C   C18       1.0  0.09646969537388127  0.4191010527082356  0.903945416175516  1.0000
  C   C19       1.0  0.8992361997090315  0.5038564768709178  0.15301690393214296  1.0000
  C   C20       1.0  0.10076380043484685  0.4961435228366246  0.8469830957978596  1.0000
  C   C21       1.0  0.019886281899097386  0.5079818127538179  0.23612893314257377  1.0000
  C   C22       1.0  0.9801137172628676  0.49201818695149313  0.7638710665899014  1.0000
  C   C23       1.0  0.14448944863507607  0.5853657163568726  0.25786942540250624  1.0000
  C   C24       1.0  0.8555105518010853  0.41463428374221956  0.7421305752435962  1.0000
  C   C25       1.0  0.15192654496538685  0.6621933961406323  0.19717449871097864  1.0000
  C   C26       1.0  0.8480734553205844  0.33780660439303795  0.8028255010177155  1.0000
  C   C27       1.0  0.1557057529658604  0.11603965410533795  0.33140661413509753  1.0000
  C   C28       1.0  0.844294247178018  0.8839603456022047  0.6685933855949051  1.0000
  C   C29       1.0  0.20479287061539386  0.2164884040768236  0.30795316338797524  1.0000
  C   C30       1.0  0.7952071295284846  0.783511595630719  0.6920468363420273  1.0000
  C   C31       1.0  0.34094923802863325  0.28203289672537596  0.36172669699833715  1.0000
  C   C32       1.0  0.6590507615677077  0.7179671041976127  0.6382733036489296  1.0000
  C   C33       1.0  0.4309633858162384  0.2505726314729162  0.4422166257663566  1.0000
  C   C34       1.0  0.5690366133457266  0.7494273682323949  0.5577833739661187  1.0000
  C   C35       1.0  0.38531351426200494  0.15215702048648846  0.4648786711617319  1.0000
  C   C36       1.0  0.6146864858818735  0.8478429792210541  0.5351213285682705  1.0000
  C   C37       1.0  0.24679966165373132  0.08029517116019613  0.40919971783483094  1.0000
  C   C38       1.0  0.7532003384901471  0.9197048285473466  0.5908002818951716  1.0000
  C   C39       1.0  0.1937887149414523  0.9783750456053327  0.42862036359540917  1.0000
  C   C40       1.0  0.806211285344519  0.02162495492833764  0.5713796361332851  1.0000
  C   C41       1.0  0.052943593093909246  0.9164364950075639  0.3785986268173423  1.0000
  C   C42       1.0  0.9470564070499692  0.0835635046999788  0.6214013729126604  1.0000
  C   C43       1.0  0.9916895765672491  0.8175808901310176  0.40088106564998455  1.0000
  C   C44       1.0  0.008310423718721923  0.1824191104026527  0.5991189340787098  1.0000
  C   C45       1.0  0.8532707110230896  0.761209155667943  0.3491714092937735  1.0000
  C   C46       1.0  0.14672928912078873  0.23879084403959966  0.6508285904362292  1.0000
  C   C47       1.0  0.769045311278694  0.7996900698407319  0.2715851158126389  1.0000
  C   C48       1.0  0.23095468915746722  0.20030993025836022  0.7284148848334635  1.0000
  C   C49       1.0  0.8236033589450508  0.8952789348742162  0.24813827542455894  1.0000
  C   C50       1.0  0.17639664149111056  0.104721065224876  0.7518617252215434  1.0000
  C   C51       1.0  0.9652764075291138  0.955648753098852  0.3017986966555785  1.0000
  C   C52       1.0  0.03472359290704751  0.04435124700024027  0.6982013039905239  1.0000
  N   N1        1.0  0.2779767655976067  0.7357500454246092  0.21552987624932424  1.0000
  N   N2        1.0  0.7220232345462716  0.2642499542829333  0.7844701234806783  1.0000
  N   N3        1.0  0.019159239212920558  0.051819683949901114  0.27875293320706496  1.0000
  N   N4        1.0  0.9808407602413274  0.9481803161469597  0.7212470674415101  1.0000
  O   O1        1.0  0.3912249006972644  0.7264498517108416  0.28253958629813586  1.0000
  O   O2        1.0  0.6087750994466139  0.27355014799670097  0.7174604134318667  1.0000
  O   O3        1.0  0.9367258514795617  0.08334314166363227  0.2042121140816711  1.0000
  O   O4        1.0  0.06327414866431674  0.9166568580439103  0.7957878856483315  1.0000
  Cl  Cl1       1.0  0.8955905125554681  0.7526223161877039  0.9699865672671186  1.0000
  Cl  Cl2       1.0  0.10440948660649695  0.24737768351760717  0.030013432465356617  1.0000
  Cl  Cl3       1.0  0.30174859780686836  0.9287972413520998  0.5150828633858054  1.0000
  Cl  Cl4       1.0  0.698251402629293  0.07120275874699233  0.484917137260297  1.0000
  I   I1        1.0  0.4494897822305344  0.526081936935327  0.18155525571113548  1.0000
  I   I2        1.0  0.550510217913344  0.4739180627722156  0.8184447440188672  1.0000
  I   I3        1.0  0.5069857810244638  0.30149779116377645  0.06257527364433128  1.0000
  I   I4        1.0  0.49301421813750124  0.6985022085415348  0.9374247260881441  1.0000
  I   I5        1.0  0.8421057470040881  0.25589291891274873  0.3113547058320085  1.0000
  I   I6        1.0  0.15789425229996973  0.7441070816186902  0.6886452938991584  1.0000
  I   I7        1.0  0.758853277997609  0.4660499529926041  0.43819795729700317  1.0000
  I   I8        1.0  0.24114672243855234  0.5339500471064881  0.5618020433490993  1.0000
