data_image0
_chemical_formula_structural       H28C24N4O4I8
_chemical_formula_sum              "H28 C24 N4 O4 I8"
_cell_length_a       8.190701223614248
_cell_length_b       8.629848164990273
_cell_length_c       13.30347033509275
_cell_angle_alpha    90.0
_cell_angle_beta     93.9869594131815
_cell_angle_gamma    90.0

_space_group_name_H-M_alt    "P 1"
_space_group_IT_number       1

loop_
  _space_group_symop_operation_xyz
  'x, y, z'

loop_
  _atom_site_type_symbol
  _atom_site_label
  _atom_site_symmetry_multiplicity
  _atom_site_fract_x
  _atom_site_fract_y
  _atom_site_fract_z
  _atom_site_occupancy
  H   H1        1.0  0.2574553829331912  0.2582059901169202  0.19893214536671772  1.0000
  H   H2        1.0  0.2425446172410283  0.7582059909865605  0.30106785493709726  1.0000
  H   H3        1.0  0.7425446174152477  0.7417940093048225  0.8010678552409122  1.0000
  H   H4        1.0  0.7574553817887218  0.24179400959395117  0.6989321449255522  1.0000
  H   H5        1.0  0.21227556481108326  0.13330011351379284  0.02794233671821506  1.0000
  H   H6        1.0  0.28772443536313624  0.6333001143834331  0.4720576635855999  1.0000
  H   H7        1.0  0.7877244354385287  0.8666998859079499  0.9720576631359557  1.0000
  H   H8        1.0  0.7122755649853026  0.36669988619707855  0.52794233702203  1.0000
  H   H9        1.0  0.18177622123476958  0.3057506504812271  0.8749044650037546  1.0000
  H   H10       1.0  0.31822377914476363  0.8057506501920985  0.6250955353082384  1.0000
  H   H11       1.0  0.8182237790148423  0.6942493500992846  0.125095534850416  1.0000
  H   H12       1.0  0.6817762211048483  0.19424935038841318  0.37490446454593224  1.0000
  H   H13       1.0  0.19414616013474628  0.5927501228529165  0.8990805281080533  1.0000
  H   H14       1.0  0.30585384024478696  0.09275012314204513  0.6009194722039396  1.0000
  H   H15       1.0  0.8058538401148656  0.4072498765688262  0.10091947174611728  1.0000
  H   H16       1.0  0.694146160103652  0.9072498774384665  0.39908052840369035  1.0000
  H   H17       1.0  0.13824500477268142  0.7854152518577527  0.12394756483780708  1.0000
  H   H18       1.0  0.36175499530271094  0.28541525214688135  0.37605243471254846  1.0000
  H   H19       1.0  0.8617549954769305  0.21458474756398999  0.8760524350163635  1.0000
  H   H20       1.0  0.638245004946901  0.7145847484336303  0.6239475651416221  1.0000
  H   H21       1.0  0.23667302205632884  0.8125253568708533  0.009111811429258331  1.0000
  H   H22       1.0  0.26332697801906363  0.312525357159982  0.49088818812109725  1.0000
  H   H23       1.0  0.7633269781932831  0.1874746425508894  0.9908881884249123  1.0000
  H   H24       1.0  0.7366730222305483  0.6874746422617608  0.5091118117330733  1.0000
  H   H25       1.0  0.35389929789727237  0.7780414720665677  0.1253394989846441  1.0000
  H   H26       1.0  0.14610070095825822  0.2780414723556964  0.3746605005741904  1.0000
  H   H27       1.0  0.6461007011324778  0.2219585285139439  0.8746605008780054  1.0000
  H   H28       1.0  0.8538992980714918  0.7219585282248153  0.6253394992884592  1.0000
  C   C1        1.0  0.2420708381027751  0.32429452830392347  0.12930974548111887  1.0000
  C   C2        1.0  0.25792916207144434  0.8242945280147947  0.3706902548226962  1.0000
  C   C3        1.0  0.7579291621468368  0.6757054722765882  0.8706902543730517  1.0000
  C   C4        1.0  0.7420708369583057  0.1757054725657168  0.6293097450399533  1.0000
  C   C5        1.0  0.2171984148160769  0.2588981506145095  0.03468936026415716  1.0000
  C   C6        1.0  0.2828015853581426  0.7588981503253809  0.4653106400396578  1.0000
  C   C7        1.0  0.782801585532362  0.7411018499660021  0.9653106403434728  1.0000
  C   C8        1.0  0.7171984148914693  0.24110184909636184  0.5346893598145127  1.0000
  C   C9        1.0  0.20037220712641476  0.3548153132545237  0.9502782995017237  1.0000
  C   C10       1.0  0.2996277920332566  0.854815312965395  0.5497217008187482  1.0000
  C   C11       1.0  0.7996277919033352  0.645184686167219  0.04972170036092579  1.0000
  C   C12       1.0  0.7003722070953206  0.14518468645634766  0.45027829979736084  1.0000
  C   C13       1.0  0.20741748420587672  0.5147999634597288  0.9635942749789334  1.0000
  C   C14       1.0  0.29258251485496756  0.014799963748857448  0.536405724588079  1.0000
  C   C15       1.0  0.7925825148238733  0.4852000359620139  0.0364057248837161  1.0000
  C   C16       1.0  0.7074174841747825  0.9852000356728853  0.4635942752745705  1.0000
  C   C17       1.0  0.2321355048366122  0.5795828239818908  0.05930929762311266  1.0000
  C   C18       1.0  0.2678644953376073  0.07958282311225046  0.4406907026807023  1.0000
  C   C19       1.0  0.7678644954129997  0.4204171765986209  0.940690702231058  1.0000
  C   C20       1.0  0.7321355050108316  0.9204171763094923  0.5593092979269277  1.0000
  C   C21       1.0  0.24059946267102658  0.7481778446802231  0.08022871260101623  1.0000
  C   C22       1.0  0.2594005375031929  0.24817784496935172  0.4197712877027987  1.0000
  C   C23       1.0  0.7594005375785854  0.2518221559002886  0.9197712872531544  1.0000
  C   C24       1.0  0.7405994615265572  0.75182215561116  0.5802287121598507  1.0000
  N   N1        1.0  0.24967081996830395  0.48056480956692177  0.14003369922896125  1.0000
  N   N2        1.0  0.2503291802059155  0.9805648092777931  0.3599663010748537  1.0000
  N   N3        1.0  0.750329180281308  0.5194351910135898  0.8599663006252093  1.0000
  N   N4        1.0  0.7496708201425235  0.019435191302718483  0.6400336995327762  1.0000
  O   O1        1.0  0.275919711152318  0.5390803466129399  0.23281308167052603  1.0000
  O   O2        1.0  0.22408028902190147  0.03908034574329967  0.26718691863328903  1.0000
  O   O3        1.0  0.7240802878774321  0.4609196539675717  0.7671869181921235  1.0000
  O   O4        1.0  0.7759197112277104  0.9609196536784431  0.7328130812208816  1.0000
  I   I1        1.0  0.5682391770220339  0.5392259552002494  0.2833601220772543  1.0000
  I   I2        1.0  0.9317608219766219  0.039225955489378135  0.21663987808103224  1.0000
  I   I3        1.0  0.4317608221065433  0.46077404422149326  0.7166398785388547  1.0000
  I   I4        1.0  0.06823917705312806  0.9607740450911334  0.7833601217816172  1.0000
  I   I5        1.0  0.9051887055900084  0.535900321950243  0.33269234086641625  1.0000
  I   I6        1.0  0.5948112934086474  0.03590032108060261  0.1673076592918703  1.0000
  I   I7        1.0  0.09481129343974166  0.46409967863026874  0.6673076589962332  1.0000
  I   I8        1.0  0.4051887057199297  0.9640996783411402  0.8326923413242386  1.0000
