data_image0
_chemical_formula_structural       H40C50N6O12S2Cl2
_chemical_formula_sum              "H40 C50 N6 O12 S2 Cl2"
_cell_length_a       7.394673668970007
_cell_length_b       8.13945314524483
_cell_length_c       21.22749256728863
_cell_angle_alpha    93.98127867922177
_cell_angle_beta     91.8819939829604
_cell_angle_gamma    112.53944205356902

_space_group_name_H-M_alt    "P 1"
_space_group_IT_number       1

loop_
  _space_group_symop_operation_xyz
  'x, y, z'

loop_
  _atom_site_type_symbol
  _atom_site_label
  _atom_site_symmetry_multiplicity
  _atom_site_fract_x
  _atom_site_fract_y
  _atom_site_fract_z
  _atom_site_occupancy
  H   H1        1.0  0.361105842979851  0.8648067963232244  0.059722399947203623  1.0000
  H   H2        1.0  0.638894157122024  0.13519320306181978  0.9402776003242287  1.0000
  H   H3        1.0  0.6175162905497893  0.38113434432376875  0.19513533542260325  1.0000
  H   H4        1.0  0.38248371010008453  0.6188656563926643  0.8048646648542579  1.0000
  H   H5        1.0  0.4600746490243375  0.5964066621149179  0.22152875325942456  1.0000
  H   H6        1.0  0.5399253509936701  0.4035933371667841  0.7784712465388285  1.0000
  H   H7        1.0  0.19309779479820538  0.17577181458636978  0.20098640626020137  1.0000
  H   H8        1.0  0.806902205767801  0.8242281860267209  0.7990135935434806  1.0000
  H   H9        1.0  0.8655903567450773  0.008618960275139215  0.2123656223609516  1.0000
  H   H10       1.0  0.13440964327293037  0.9913810390065628  0.7876343774373016  1.0000
  H   H11       1.0  0.4027889825122005  0.882351932621925  0.34061514601919496  1.0000
  H   H12       1.0  0.5972110180538059  0.11764806799116578  0.659384853784487  1.0000
  H   H13       1.0  0.8304237915339989  0.6429608184636988  0.027381866439779523  1.0000
  H   H14       1.0  0.1695762090320076  0.35703918214939195  0.9726181333639025  1.0000
  H   H15       1.0  0.6804319260520244  0.86236916797372  0.054467378929587  1.0000
  H   H16       1.0  0.31956807404985055  0.1376308314113241  0.9455326213418453  1.0000
  H   H17       1.0  0.12740521042826555  0.5550998246467946  0.15471597080957492  1.0000
  H   H18       1.0  0.872594789589742  0.44490017463490733  0.8452840289886783  1.0000
  H   H19       1.0  0.1380458818566798  0.5885044953889029  0.0707429790337777  1.0000
  H   H20       1.0  0.8619541187093266  0.4114955052241878  0.9292570207699042  1.0000
  H   H21       1.0  0.18280026648354306  0.40373964285557273  0.10003462151673347  1.0000
  H   H22       1.0  0.817199733618332  0.5962603565294715  0.899965378754699  1.0000
  H   H23       1.0  0.08420143844128965  0.9766408254671636  0.29965245888135983  1.0000
  H   H24       1.0  0.9157985621247168  0.02335917514592723  0.7003475409223221  1.0000
  H   H25       1.0  0.07471913512764503  0.015916142527107775  0.44225490137952383  1.0000
  H   H26       1.0  0.92528086497423  0.9840838568579365  0.5577450988919085  1.0000
  H   H27       1.0  0.07365526418277552  0.8177092026242607  0.4025758739469791  1.0000
  H   H28       1.0  0.9263447345606436  0.18229079674641  0.5974241263228758  1.0000
  H   H29       1.0  0.8834129900083468  0.8076538955005401  0.454514894773037  1.0000
  H   H30       1.0  0.11658701000966071  0.1923461037811618  0.5454851050252161  1.0000
  H   H31       1.0  0.5480656236694125  0.8165474103082138  0.4334244419325471  1.0000
  H   H32       1.0  0.4519343763485952  0.1834525889734882  0.566575557865706  1.0000
  H   H33       1.0  0.8710470739555048  0.6456951240667743  0.5891412151025907  1.0000
  H   H34       1.0  0.1289529260625028  0.35430487521492776  0.41085878469566245  1.0000
  H   H35       1.0  0.12562330246399636  0.7348369452126887  0.5098260268608303  1.0000
  H   H36       1.0  0.8743766976378787  0.2651630541723556  0.4901739734106021  1.0000
  H   H37       1.0  0.5123517476795177  0.5863540897240054  0.6276061372670287  1.0000
  H   H38       1.0  0.48764825297035613  0.4136459109924277  0.3723938630098324  1.0000
  H   H39       1.0  0.2534699483983118  0.4873536040841051  0.7064462756769662  1.0000
  H   H40       1.0  0.7465300522515621  0.5126463966323279  0.2935537245998949  1.0000
  C   C1        1.0  0.48243094451450963  0.9575686671218119  0.2181170818356373  1.0000
  C   C2        1.0  0.5175690555873653  0.042431332263232244  0.781882918435795  1.0000
  C   C3        1.0  0.5638762296404305  0.7468782110504079  0.14047468606924954  1.0000
  C   C4        1.0  0.43612376956712  0.2531217895483094  0.8595253137328549  1.0000
  C   C5        1.0  0.36960241540623934  0.9199446213723215  0.10844567258817367  1.0000
  C   C6        1.0  0.6303975846956358  0.08005537801272286  0.8915543276832587  1.0000
  C   C7        1.0  0.47350625268650665  0.8767218338340662  0.15620363947327195  1.0000
  C   C8        1.0  0.5264937459730452  0.1232781654332622  0.8437963603234037  1.0000
  C   C9        1.0  0.615344033899613  0.9436593860048167  0.2691318968693011  1.0000
  C   C10       1.0  0.38465596611839464  0.05634061327688529  0.730868102928952  1.0000
  C   C11       1.0  0.27052343847489274  0.02976742301494232  0.12418271810550671  1.0000
  C   C12       1.0  0.7294765615431148  0.9702325762667595  0.8758172816927463  1.0000
  C   C13       1.0  0.6296183624510191  0.4872022782284291  0.16500600416562797  1.0000
  C   C14       1.0  0.3703816376508561  0.5127977211566153  0.8349939961058045  1.0000
  C   C15       1.0  0.7318115280440708  0.5006940228586572  0.11025339813076374  1.0000
  C   C16       1.0  0.268188472605803  0.49930597785777586  0.8897466021460975  1.0000
  C   C17       1.0  0.5445121531507525  0.6093723902392214  0.17968320689313588  1.0000
  C   C18       1.0  0.4554878469511225  0.3906276091458228  0.8203167933782965  1.0000
  C   C19       1.0  0.27370145303997234  0.09260693148370991  0.18728634907211902  1.0000
  C   C20       1.0  0.7262985470619027  0.9073930679013342  0.8127136511993133  1.0000
  C   C21       1.0  0.8109373945634655  0.9714653670206839  0.2585060860038633  1.0000
  C   C22       1.0  0.18906260409608633  0.02853463224664459  0.7414939137928123  1.0000
  C   C23       1.0  0.5526023837255558  0.902764300268456  0.32937864326495064  1.0000
  C   C24       1.0  0.44739761637631914  0.0972356991165881  0.6706213570064817  1.0000
  C   C25       1.0  0.7486850214400104  0.633099216400122  0.0696816429709709  1.0000
  C   C26       1.0  0.2513149786618645  0.36690078298492207  0.9303183573004613  1.0000
  C   C27       1.0  0.6643390264398366  0.7558738607644359  0.08495180238327586  1.0000
  C   C28       1.0  0.33566097357817104  0.24412613851726614  0.9150481974149772  1.0000
  C   C29       1.0  0.10212002355038756  0.49136514661444636  0.1062585493883746  1.0000
  C   C30       1.0  0.8978799751091642  0.5086348526528821  0.893741450408301  1.0000
  C   C31       1.0  0.9314254592042537  0.9540492727158206  0.3068582482696341  1.0000
  C   C32       1.0  0.0685745400871642  0.04595072798623885  0.6931417520056495  1.0000
  C   C33       1.0  0.8555058850444417  0.906525131430204  0.3656576136500508  1.0000
  C   C34       1.0  0.14449411505743337  0.09347486795484027  0.6343423866213816  1.0000
  C   C35       1.0  0.977907902242682  0.8844254208014338  0.4192900828162408  1.0000
  C   C36       1.0  0.022092097859193045  0.11557457858361035  0.5807099174551915  1.0000
  C   C37       1.0  0.05274427909980233  0.5641474071053676  0.6518545225370191  1.0000
  C   C38       1.0  0.9472557195597495  0.435852592161961  0.3481454772596566  1.0000
  C   C39       1.0  0.3331530184732918  0.6654602835352621  0.5641000921768557  1.0000
  C   C40       1.0  0.6668469816285832  0.33453971584978215  0.4358999080945767  1.0000
  C   C41       1.0  0.01129414790248223  0.6333222359477784  0.5973376084089845  1.0000
  C   C42       1.0  0.9887058527473916  0.3666777647686547  0.40266239186787667  1.0000
  C   C43       1.0  0.48835863661957946  0.7199284192653281  0.5172849082322943  1.0000
  C   C44       1.0  0.5116413633984283  0.28007158001637394  0.48271509156595876  1.0000
  C   C45       1.0  0.15321947086541057  0.6823458507062728  0.5531968409582857  1.0000
  C   C46       1.0  0.8467805283421401  0.31765414989244456  0.44680315884381877  1.0000
  C   C47       1.0  0.3712253843404217  0.5970359509526583  0.6195736237142299  1.0000
  C   C48       1.0  0.6287746143191301  0.40296404831467014  0.3804263760824457  1.0000
  C   C49       1.0  0.22972158318854657  0.5438051109476569  0.66355275707358  1.0000
  C   C50       1.0  0.7702784169133283  0.4561948884373872  0.3364472431978523  1.0000
  N   N1        1.0  0.3796415507479758  0.058432527624862805  0.23293785752861676  1.0000
  N   N2        1.0  0.6203584492700318  0.9415674716568391  0.7670621422696363  1.0000
  N   N3        1.0  0.6679549378199297  0.8824122009307096  0.3757843775584946  1.0000
  N   N4        1.0  0.33204506228194536  0.11758779845433467  0.6242156227129377  1.0000
  N   N5        1.0  0.9048137367161712  0.5088296328369966  0.6986003745897805  1.0000
  N   N6        1.0  0.09518626249137942  0.4911703677617206  0.30139962521232383  1.0000
  O   O1        1.0  0.8020018340534253  0.22424985141252085  0.14210552809681432  1.0000
  O   O2        1.0  0.19799816460612663  0.7757501478548077  0.8578944716998613  1.0000
  O   O3        1.0  0.8100949255814278  0.28376111795134107  0.027699306481957998  1.0000
  O   O4        1.0  0.1899050749845786  0.7162388826617497  0.9723006933217239  1.0000
  O   O5        1.0  0.4332166695407644  0.7731513246146645  0.46516992276415714  1.0000
  O   O6        1.0  0.5667833297506536  0.22684867608739515  0.5348300775111265  1.0000
  O   O7        1.0  0.6515691327891394  0.7148757866246358  0.5279143836007109  1.0000
  O   O8        1.0  0.348430867776867  0.285124213988455  0.472085616202971  1.0000
  O   O9        1.0  0.9213776203130369  0.4082909724115011  0.738123630995351  1.0000
  O   O10       1.0  0.07862237978883799  0.591709026973543  0.26187636927608127  1.0000
  O   O11       1.0  0.7694889623141247  0.5638888668589553  0.6967366895004984  1.0000
  O   O12       1.0  0.23051103825188174  0.4361111337541354  0.3032633103031835  1.0000
  S   S1        1.0  0.8507345344955546  0.35115136827480314  0.09433799446907629  1.0000
  S   S2        1.0  0.1492654660704519  0.6488486323382876  0.9056620053346057  1.0000
  Cl  Cl1       1.0  0.13976045021123143  0.0824705221328891  0.06561387896400964  1.0000
  Cl  Cl2       1.0  0.8602395484483203  0.9175294771344393  0.9343861208326659  1.0000
