data_image0
_chemical_formula_structural       H80C76N32O16F8I4
_chemical_formula_sum              "H80 C76 N32 O16 F8 I4"
_cell_length_a       21.872104748018522
_cell_length_b       4.002857208794073
_cell_length_c       25.887862387782885
_cell_angle_alpha    90.0
_cell_angle_beta     110.93544377286902
_cell_angle_gamma    90.0

_space_group_name_H-M_alt    "P 1"
_space_group_IT_number       1

loop_
  _space_group_symop_operation_xyz
  'x, y, z'

loop_
  _atom_site_type_symbol
  _atom_site_label
  _atom_site_symmetry_multiplicity
  _atom_site_fract_x
  _atom_site_fract_y
  _atom_site_fract_z
  _atom_site_occupancy
  H   H1        1.0  0.666094469799132  0.4760732073613262  0.6672524684584681  1.0000
  H   H2        1.0  0.3339055302191368  0.9760732062628517  0.8327475313607471  1.0000
  H   H3        1.0  0.3339055301277738  0.5239267929399404  0.33274753125684614  1.0000
  H   H4        1.0  0.6660944698823701  0.023926794038414866  0.16725246876815172  1.0000
  H   H5        1.0  0.8691906769728874  0.9111303500877955  0.8671069251204883  1.0000
  H   H6        1.0  0.13080932321998276  0.41113035118627006  0.6328930751123113  1.0000
  H   H7        1.0  0.13080932312861965  0.08886965021347097  0.13289307500841038  1.0000
  H   H8        1.0  0.8691906768815243  0.5888696491149965  0.3671069250165874  1.0000
  H   H9        1.0  0.8427809441042093  0.004154747254901536  0.794544072333466  1.0000
  H   H10       1.0  0.15721905591405932  0.504154746156427  0.7054559274857489  1.0000
  H   H11       1.0  0.15721905599729752  0.995845253046365  0.20545592779543267  1.0000
  H   H12       1.0  0.8427809440128463  0.4958452541448395  0.29454407222956513  1.0000
  H   H13       1.0  0.8415133972036399  0.583985550337491  0.8171354998040649  1.0000
  H   H14       1.0  0.1584866025319075  0.08398555143596552  0.6828645004284527  1.0000
  H   H15       1.0  0.15848660244054444  0.4160144499637755  0.18286450032455182  1.0000
  H   H16       1.0  0.8415133975695995  0.9160144488653009  0.317135499700446  1.0000
  H   H17       1.0  0.6940823693326355  0.8006418122932532  0.9446615776274649  1.0000
  H   H18       1.0  0.30591763086023466  0.30064181339172774  0.5553384226053348  1.0000
  H   H19       1.0  0.3059176307688716  0.19935818800801325  0.05533842250143397  1.0000
  H   H20       1.0  0.6940823692412724  0.6993581869095388  0.4446615775235639  1.0000
  H   H21       1.0  0.6732423483383414  0.4154222629642512  0.9082480213196413  1.0000
  H   H22       1.0  0.3267576516799274  0.9154222643639922  0.5917519784995735  1.0000
  H   H23       1.0  0.32675765176316557  0.5845777373370153  0.09175197880925731  1.0000
  H   H24       1.0  0.6732423482469783  0.0845777359372743  0.4082480212157405  1.0000
  H   H25       1.0  0.6130767725008777  0.7384625595701756  0.8953366143345739  1.0000
  H   H26       1.0  0.3869232275173911  0.23846255817043455  0.6046633854846412  1.0000
  H   H27       1.0  0.38692322760062936  0.2615374407310909  0.1046633857943249  1.0000
  H   H28       1.0  0.6130767724095145  0.7615374421308319  0.3953366142306729  1.0000
  H   H29       1.0  0.531400831722871  0.21346025736886515  0.6734189281547117  1.0000
  H   H30       1.0  0.4685991682953977  0.7134602562703907  0.8265810716645031  1.0000
  H   H31       1.0  0.46859916820403463  0.7865397429324014  0.3265810715606023  1.0000
  H   H32       1.0  0.5314008318061093  0.2865397440308759  0.17341892846439555  1.0000
  H   H33       1.0  0.556269401136729  0.6390113577822579  0.6863194497123263  1.0000
  H   H34       1.0  0.4437305984242174  0.13901135638251694  0.8136805501066068  1.0000
  H   H35       1.0  0.4437305985074556  0.36098864251900853  0.3136805504162905  1.0000
  H   H36       1.0  0.5562694015026883  0.860988641420534  0.18631944960870733  1.0000
  H   H37       1.0  0.5406823684661878  0.3965268300135498  0.7382998081527798  1.0000
  H   H38       1.0  0.45931763155208094  0.8965268314132909  0.7617001916664351  1.0000
  H   H39       1.0  0.4593176314607179  0.6034731702877167  0.2617001915625342  1.0000
  H   H40       1.0  0.5406823683748248  0.10347316888797567  0.23829980804887896  1.0000
  H   H41       1.0  0.2133540858594499  0.8299990173771196  0.524083944428295  1.0000
  H   H42       1.0  0.7866459141588189  0.329999018475594  0.97591605539092  1.0000
  H   H43       1.0  0.786645914242057  0.170000982924147  0.47591605570060375  1.0000
  H   H44       1.0  0.21335408576808684  0.6700009818256726  0.02408394432439409  1.0000
  H   H45       1.0  0.9516848738496514  0.09129454560536136  0.2848301295004072  1.0000
  H   H46       1.0  0.04831512616049263  0.5912945445068868  0.2151698705245906  1.0000
  H   H47       1.0  0.048315126251855744  0.9087054546959051  0.7151698706284916  1.0000
  H   H48       1.0  0.9516848737664131  0.4087054557943796  0.7848301291907235  1.0000
  H   H49       1.0  0.9580093969070603  0.8427212173816863  0.34412622615984123  1.0000
  H   H50       1.0  0.041990603103083474  0.34272121598194527  0.1558737738651566  1.0000
  H   H51       1.0  0.041990603194446544  0.15727878291958028  0.6558737739690575  1.0000
  H   H52       1.0  0.9580093969984235  0.6572787818211058  0.8441262262637421  1.0000
  H   H53       1.0  0.9958711348611364  0.7096631910224451  0.29626666950426145  1.0000
  H   H54       1.0  0.004128865149007541  0.20966318962270417  0.2037333305207364  1.0000
  H   H55       1.0  0.004128865240370592  0.29033680927882133  0.7037333306246373  1.0000
  H   H56       1.0  0.9958711349524993  0.7903368106785623  0.7962666696081624  1.0000
  H   H57       1.0  0.2504932232197647  0.2498155337150433  0.3738483424857995  1.0000
  H   H58       1.0  0.7495067767903792  0.7498155326165689  0.12615165753919827  1.0000
  H   H59       1.0  0.749506776707141  0.7501844665862232  0.6261516572295145  1.0000
  H   H60       1.0  0.25049322331112783  0.2501844651864822  0.8738483425897005  1.0000
  H   H61       1.0  0.2058355871897019  0.5698746472865635  0.326617013873669  1.0000
  H   H62       1.0  0.7941644128204419  0.06987464588682235  0.17338298615132886  1.0000
  H   H63       1.0  0.7941644129118052  0.4301253530147031  0.6733829862552299  1.0000
  H   H64       1.0  0.20583558710646369  0.9301253544144441  0.8266170135639852  1.0000
  H   H65       1.0  0.19543917325534482  0.1420474951619118  0.30618026899106526  1.0000
  H   H66       1.0  0.804560826754799  0.6420474940634373  0.19381973103393252  1.0000
  H   H67       1.0  0.8045608266715609  0.8579525051393547  0.6938197307242487  1.0000
  H   H68       1.0  0.1954391733467079  0.3579525062378292  0.8061802690949662  1.0000
  H   H69       1.0  0.11781940337114657  0.7867212257987909  0.5511398992500041  1.0000
  H   H70       1.0  0.8821805968217235  0.2867212268972654  0.9488601009827956  1.0000
  H   H71       1.0  0.8821805967303603  0.21327877200426007  0.4488601008788947  1.0000
  H   H72       1.0  0.1178194032797835  0.7132787734040011  0.05113989914610314  1.0000
  H   H73       1.0  0.07506393060086602  0.39845537744787757  0.5311143882733178  1.0000
  H   H74       1.0  0.9249360694174027  0.8984553763494031  0.9688856115458973  1.0000
  H   H75       1.0  0.924936069500641  0.6015446228533889  0.468885611855581  1.0000
  H   H76       1.0  0.0750639305095029  0.10154462395186346  0.031114388169416852  1.0000
  H   H77       1.0  0.04220675755840543  0.7682815448034659  0.4931519486629092  1.0000
  H   H78       1.0  0.9577932424517384  0.2682815459019403  0.006848051362088643  1.0000
  H   H79       1.0  0.9577932425431016  0.23171845549780065  0.5068480514659895  1.0000
  H   H80       1.0  0.04220675719244596  0.7317184543993261  0.993151948766528  1.0000
  C   C1        1.0  0.43344482488903396  0.8989165719163956  0.4854278519624465  1.0000
  C   C2        1.0  0.5665551751211099  0.39891657301487005  0.014572148062551343  1.0000
  C   C3        1.0  0.566555175212473  0.10108342838487092  0.5145721481664522  1.0000
  C   C4        1.0  0.4334448245230746  0.6010834272863964  0.9854278520660654  1.0000
  C   C5        1.0  0.47912199477903056  0.8460283650788154  0.5384589859278609  1.0000
  C   C6        1.0  0.5208780047819157  0.3460283661772899  0.9615410138910719  1.0000
  C   C7        1.0  0.5208780048651539  0.15397163522245114  0.4615410142007557  1.0000
  C   C8        1.0  0.47912199514499004  0.6539716341239766  0.038458985824242106  1.0000
  C   C9        1.0  0.5441096066170482  0.9449923773672635  0.5525391378046667  1.0000
  C   C10       1.0  0.4558903935758219  0.4449923759675225  0.9474608624281329  1.0000
  C   C11       1.0  0.4558903934844588  0.05500762293400298  0.44746086232423204  1.0000
  C   C12       1.0  0.5441096065256851  0.5550076243337441  0.0525391377007658  1.0000
  C   C13       1.0  0.7480459013312237  0.7682425151824099  0.8644680569956464  1.0000
  C   C14       1.0  0.2519540988616463  0.26824251378266895  0.6355319432371532  1.0000
  C   C15       1.0  0.25195409877028324  0.23175748511885652  0.13553194313325234  1.0000
  C   C16       1.0  0.7480459012398605  0.731757484020382  0.3644680568917455  1.0000
  C   C17       1.0  0.7228972826946536  0.0670864749834285  0.7799125277902144  1.0000
  C   C18       1.0  0.2771027174982164  0.5670864738849539  0.7200874724425852  1.0000
  C   C19       1.0  0.2771027174068534  0.932913525317838  0.2200874723386843  1.0000
  C   C20       1.0  0.7228972826032906  0.43291352641631253  0.27991252768631353  1.0000
  C   C21       1.0  0.6583725940262866  0.11134177832295697  0.7761857557218769  1.0000
  C   C22       1.0  0.34162740599198227  0.611341779722698  0.723814244097338  1.0000
  C   C23       1.0  0.3416274059006192  0.8886582219783096  0.22381424399343716  1.0000
  C   C24       1.0  0.6583725941095248  0.38865822057856847  0.27618575603156065  1.0000
  C   C25       1.0  0.6338092848541268  0.9946790685545113  0.8170263517150297  1.0000
  C   C26       1.0  0.3661907153387431  0.49467906715477034  0.6829736485177698  1.0000
  C   C27       1.0  0.3661907152473801  0.0053209317467551275  0.18297364841386904  1.0000
  C   C28       1.0  0.6338092847627638  0.5053209331464962  0.3170263516111288  1.0000
  C   C29       1.0  0.6758895878493262  0.3414617880940544  0.7057737915530994  1.0000
  C   C30       1.0  0.32411041188622125  0.8414617894937955  0.7942262086794181  1.0000
  C   C31       1.0  0.3241104117948581  0.6585382122072121  0.2942262085755172  1.0000
  C   C32       1.0  0.6758895882152858  0.15853821080747107  0.20577379144948063  1.0000
  C   C33       1.0  0.8346468883865109  0.8461830196087446  0.8259714237895283  1.0000
  C   C34       1.0  0.16535311180635917  0.3461830207072191  0.6740285764432713  1.0000
  C   C35       1.0  0.16535311171499606  0.15381697819430637  0.1740285763393704  1.0000
  C   C36       1.0  0.8346468882951479  0.6538169795940474  0.32597142368562737  1.0000
  C   C37       1.0  0.664997457700647  0.6854403959182424  0.9050601727654118  1.0000
  C   C38       1.0  0.33500254231762194  0.18544039701671686  0.5949398270538032  1.0000
  C   C39       1.0  0.33500254240086014  0.31455960438302416  0.09493982736348698  1.0000
  C   C40       1.0  0.6649974576092839  0.8145596032845496  0.4050601726615109  1.0000
  C   C41       1.0  0.5602094953179414  0.39120839898052934  0.7049687835485714  1.0000
  C   C42       1.0  0.4397905048749286  0.8912083978820549  0.7950312166842283  1.0000
  C   C43       1.0  0.4397905047835656  0.6087916013207372  0.2950312165803273  1.0000
  C   C44       1.0  0.5602094952265784  0.10879160241921162  0.2049687834446705  1.0000
  C   C45       1.0  0.09422465774017484  0.10648728589756912  0.3302500566715211  1.0000
  C   C46       1.0  0.9057753420953677  0.60648728729731  0.16974994293989207  1.0000
  C   C47       1.0  0.9057753421867308  0.8935127144036974  0.6697499430437929  1.0000
  C   C48       1.0  0.0942246578315379  0.3935127130039564  0.830250056775422  1.0000
  C   C49       1.0  0.1545531082737731  0.4175338571478835  0.41087285848080085  1.0000
  C   C50       1.0  0.8454468917363708  0.917533856049409  0.08912714154419694  1.0000
  C   C51       1.0  0.8454468918277339  0.5824661431533831  0.5891271416480979  1.0000
  C   C52       1.0  0.154553108190535  0.08246614425185757  0.9108728581711172  1.0000
  C   C53       1.0  0.10311708672622874  0.40102523429348286  0.4304403294985634  1.0000
  C   C54       1.0  0.8968829132839152  0.9010252331950084  0.0695596705264344  1.0000
  C   C55       1.0  0.8968829133752783  0.5989747660077837  0.5695596706303353  1.0000
  C   C56       1.0  0.10311708636026931  0.09897476710625816  0.9304403296021823  1.0000
  C   C57       1.0  0.04260001206603679  0.2388153711553438  0.40088562573910086  1.0000
  C   C58       1.0  0.9573999879441072  0.7388153700568693  0.09911437428589699  1.0000
  C   C59       1.0  0.95739998803547  0.7611846291459227  0.5991143743897979  1.0000
  C   C60       1.0  0.04260001170007731  0.26118463024439725  0.9008856258427197  1.0000
  C   C61       1.0  0.1857434291330913  0.6818314862703382  0.488101003342011  1.0000
  C   C62       1.0  0.8142565708770524  0.18183148487059708  0.01189899668298675  1.0000
  C   C63       1.0  0.8142565709684156  0.3181685140309284  0.5118989967868878  1.0000
  C   C64       1.0  0.18574342922445444  0.818168512932454  0.988101003445912  1.0000
  C   C65       1.0  0.9832780206373891  0.9230290483214878  0.3167194642648457  1.0000
  C   C66       1.0  0.01672197937275468  0.4230290469217467  0.18328053576015213  1.0000
  C   C67       1.0  0.01672197946411775  0.07697095197977881  0.683280535864053  1.0000
  C   C68       1.0  0.983278020554151  0.5769709533795199  0.8167194639551618  1.0000
  C   C69       1.0  0.2041497827999998  0.31325418184921006  0.34089654036449524  1.0000
  C   C70       1.0  0.795850217210144  0.8132541807507355  0.15910345966050263  1.0000
  C   C71       1.0  0.7958502173015073  0.6867458184520564  0.6591034597644035  1.0000
  C   C72       1.0  0.2041497827167616  0.18674581955053096  0.8408965400548114  1.0000
  C   C73       1.0  0.08749854426984953  0.6353802789698366  0.5161824857650793  1.0000
  C   C74       1.0  0.9125014559230205  0.13538028006831118  0.9838175144677203  1.0000
  C   C75       1.0  0.9125014558316574  0.3646197188332143  0.4838175143638194  1.0000
  C   C76       1.0  0.08749854417848646  0.8646197202329553  0.016182485661178397  1.0000
  N   N1        1.0  0.6832253587736365  0.8232330153472447  0.8603074093213565  1.0000
  N   N2        1.0  0.3167746412446322  0.32323301394750364  0.6396925904978585  1.0000
  N   N3        1.0  0.31677464115326914  0.1767669849540219  0.1396925903939576  1.0000
  N   N4        1.0  0.6832253588568747  0.6767669838555475  0.36030740963104024  1.0000
  N   N5        1.0  0.7676091676415339  0.9002102278551145  0.8234266849645239  1.0000
  N   N6        1.0  0.23239083237673494  0.400210228953589  0.6765733148546913  1.0000
  N   N7        1.0  0.2323908324599731  0.09978977244615207  0.17657331516437497  1.0000
  N   N8        1.0  0.7676091675501708  0.5997897713476776  0.32342668486062287  1.0000
  N   N9        1.0  0.6288088815547527  0.2902436907935601  0.727730225530246  1.0000
  N   N10       1.0  0.3711911186381175  0.790243692193301  0.7722697747025536  1.0000
  N   N11       1.0  0.37119111854675435  0.7097563095077064  0.2722697745986528  1.0000
  N   N12       1.0  0.6288088814633895  0.20975630810796542  0.22773022542634502  1.0000
  N   N13       1.0  0.7339873043830432  0.20981401189002702  0.7363644883725355  1.0000
  N   N14       1.0  0.2660126958098268  0.7098140107915525  0.7636355118602639  1.0000
  N   N15       1.0  0.26601269571846375  0.7901859884112394  0.2636355117563632  1.0000
  N   N16       1.0  0.7339873042916801  0.29018598950971397  0.23636448826863465  1.0000
  N   N17       1.0  0.042995418988495106  0.0964069363134389  0.3508794331416228  1.0000
  N   N18       1.0  0.9570045810216489  0.5964069377131799  0.14912056688337505  1.0000
  N   N19       1.0  0.9570045811130119  0.9035930639878277  0.6491205669872759  1.0000
  N   N20       1.0  0.04299541907985813  0.4035930625880866  0.8508794332455236  1.0000
  N   N21       1.0  0.15082367154606935  0.2759511050190014  0.36179000584547116  1.0000
  N   N22       1.0  0.8491763282894733  0.7759511039205269  0.13820999376594192  1.0000
  N   N23       1.0  0.8491763283808363  0.7240488952822651  0.6382099938698429  1.0000
  N   N24       1.0  0.1508236716374324  0.22404889638073963  0.861790005949372  1.0000
  N   N25       1.0  0.12450155797854516  0.5736140512221111  0.48017531040916195  1.0000
  N   N26       1.0  0.8754984420315988  0.07361405232058556  0.019824689615835948  1.0000
  N   N27       1.0  0.8754984419483605  0.4263859465809399  0.5198246893061522  1.0000
  N   N28       1.0  0.12450155806990822  0.926385947980681  0.9801753105130628  1.0000
  N   N29       1.0  0.20596881152842278  0.591476497037794  0.44669524011327544  1.0000
  N   N30       1.0  0.794031188481721  0.09147649563805299  0.053304759911722344  1.0000
  N   N31       1.0  0.7940311885730843  0.40852350326347253  0.5533047600156233  1.0000
  N   N32       1.0  0.20596881161978595  0.908523502164998  0.9466952402171764  1.0000
  O   O1        1.0  0.7863913007946364  0.6065711049261936  0.9035482609320236  1.0000
  O   O2        1.0  0.2136086992236324  0.10657110352645253  0.5964517388871914  1.0000
  O   O3        1.0  0.21360869930687063  0.3934288953750729  0.0964517391968752  1.0000
  O   O4        1.0  0.7863913007032733  0.893428896774814  0.4035482608281226  1.0000
  O   O5        1.0  0.5778357020930466  0.031210968436627833  0.8175244710030506  1.0000
  O   O6        1.0  0.42216429792522214  0.5312109698363688  0.6824755288161642  1.0000
  O   O7        1.0  0.4221642978338591  0.9687890318646387  0.18247552871226339  1.0000
  O   O8        1.0  0.5778357021762849  0.46878903046489767  0.3175244713127344  1.0000
  O   O9        1.0  0.08946619797018458  0.9688050604154096  0.2862366048054887  1.0000
  O   O10       1.0  0.9105338020399594  0.4688050590156686  0.21376339521950916  1.0000
  O   O11       1.0  0.9105338021313223  0.031194939885856886  0.71376339532341  1.0000
  O   O12       1.0  0.08946619806154764  0.531194941285598  0.7862366049093895  1.0000
  O   O13       1.0  0.994134646780731  0.2155979803886123  0.414947590720682  1.0000
  O   O14       1.0  0.005865353229412819  0.7155979792901378  0.0850524093043158  1.0000
  O   O15       1.0  0.005865353320775941  0.7844020199126542  0.5850524094082168  1.0000
  O   O16       1.0  0.9941346464147717  0.2844020210111287  0.9149475908243008  1.0000
  F   F1        1.0  0.46092404921248836  0.695434179836418  0.5776585394458179  1.0000
  F   F2        1.0  0.5390759508057804  0.19543417843667704  0.9223414603733969  1.0000
  F   F3        1.0  0.5390759508890186  0.3045658204648484  0.4223414606830808  1.0000
  F   F4        1.0  0.46092404912112533  0.8045658218645895  0.077658539341917  1.0000
  F   F5        1.0  0.58616997754964  0.8856650450111977  0.6050612285484033  1.0000
  F   F6        1.0  0.41383002246862877  0.3856650461096722  0.8949387712708117  1.0000
  F   F7        1.0  0.4138300223772658  0.1143349552900688  0.39493877116691084  1.0000
  F   F8        1.0  0.5861699774582768  0.6143349541915942  0.10506122844450229  1.0000
  I   I1        1.0  0.33470213534936993  0.7531607805985807  0.4639455363583878  1.0000
  I   I2        1.0  0.665297864660774  0.25316077919883967  0.03605446366660999  1.0000
  I   I3        1.0  0.665297864752137  0.24683921970268582  0.5360544637705109  1.0000
  I   I4        1.0  0.334702135440733  0.7468392211024268  0.9639455364622888  1.0000
