data_image0
_chemical_formula_structural       H16C40N4O4S2Br4
_chemical_formula_sum              "H16 C40 N4 O4 S2 Br4"
_cell_length_a       9.217804028881657
_cell_length_b       7.058213842636188
_cell_length_c       12.941138962743512
_cell_angle_alpha    90.0
_cell_angle_beta     91.01698743588852
_cell_angle_gamma    90.0

_space_group_name_H-M_alt    "P 1"
_space_group_IT_number       1

loop_
  _space_group_symop_operation_xyz
  'x, y, z'

loop_
  _atom_site_type_symbol
  _atom_site_label
  _atom_site_symmetry_multiplicity
  _atom_site_fract_x
  _atom_site_fract_y
  _atom_site_fract_z
  _atom_site_occupancy
  H   H1        1.0  0.1443888219300767  0.24525115823828197  0.3621463039879566  1.0000
  H   H2        1.0  0.644388821747075  0.7547488428050148  0.8621463037245812  1.0000
  H   H3        1.0  0.6895731381663995  0.13101704632607367  0.6596440933080331  1.0000
  H   H4        1.0  0.18957313832750908  0.8689829547172231  0.15964409279855943  1.0000
  H   H5        1.0  0.9567676063249234  0.9306615648735574  0.41205628046583737  1.0000
  H   H6        1.0  0.45676760662524285  0.06933843616973934  0.9120562810408241  1.0000
  H   H7        1.0  0.44633768129611984  0.2572911094064745  0.6891342610521372  1.0000
  H   H8        1.0  0.9463376810176926  0.7427088902200333  0.1891342612499993  1.0000
  H   H9        1.0  0.7507862776186964  0.9623928364095796  0.2865929274814521  1.0000
  H   H10       1.0  0.25078627789712366  0.03760716463371708  0.7865929272835899  1.0000
  H   H11       1.0  0.9275022064665572  0.013809143810751488  0.596159571164378  1.0000
  H   H12       1.0  0.42750220664955885  0.9861908558157562  0.09615957142775326  1.0000
  H   H13       1.0  0.04051155856546064  0.3621593418661965  0.5272207863631682  1.0000
  H   H14       1.0  0.5405115582651412  0.6378406577603112  0.02722078578818135  1.0000
  H   H15       1.0  0.18938975867325153  0.3699934357648517  0.6878664576746158  1.0000
  H   H16       1.0  0.6893897583948243  0.630006563861656  0.18786645787247802  1.0000
  C   C1        1.0  0.6417158006235217  0.5767026914672938  0.4553993703291486  1.0000
  C   C2        1.0  0.14171580092384115  0.4232973081592139  0.9553993709041354  1.0000
  C   C3        1.0  0.5095879283402215  0.6006726778933229  0.3899862545990529  1.0000
  C   C4        1.0  0.009587928640540996  0.3993273231499739  0.8899862551740397  1.0000
  C   C5        1.0  0.2506829768232409  0.7029634494818389  0.3793980033984202  1.0000
  C   C6        1.0  0.7506829766402392  0.29703655156145786  0.879398003135045  1.0000
  C   C7        1.0  0.6418821797658296  0.6120895634959136  0.5590790042622078  1.0000
  C   C8        1.0  0.1418821799488313  0.38791043613059406  0.0590790045255831  1.0000
  C   C9        1.0  0.3774807013576544  0.6719654399460038  0.44105308918978514  1.0000
  C   C10       1.0  0.8774807011746526  0.328034559680504  0.9410530889264099  1.0000
  C   C11       1.0  0.5110180231714321  0.68456542090192  0.6109996436196587  1.0000
  C   C12       1.0  0.011018023354433765  0.3154345787245878  0.1109996438830341  1.0000
  C   C13       1.0  0.2536723537406566  0.7823207107504772  0.594357750714595  1.0000
  C   C14       1.0  0.7536723534622293  0.21767928887603047  0.09435775091245707  1.0000
  C   C15       1.0  0.37815993401671577  0.7102592683884487  0.5451930275563129  1.0000
  C   C16       1.0  0.8781599337382885  0.28974073123805905  0.04519302775417512  1.0000
  C   C17       1.0  0.20913619053562074  0.24631238281534895  0.43356383699128387  1.0000
  C   C18       1.0  0.7091361903526191  0.7536876182279477  0.9335638367279085  1.0000
  C   C19       1.0  0.7030553373591056  0.09538048648134456  0.5784260242488942  1.0000
  C   C20       1.0  0.20305533752021515  0.9046195131451631  0.07842602373942056  1.0000
  C   C21       1.0  0.852473598909619  0.9825163780260165  0.4383556521300861  1.0000
  C   C22       1.0  0.3524735991880463  0.01748362160049119  0.938355651932224  1.0000
  C   C23       1.0  0.5858367186536936  0.11472257826883432  0.5085930269571024  1.0000
  C   C24       1.0  0.0858367188366953  0.8852774227744624  0.00859302722047775  1.0000
  C   C25       1.0  0.3533921266180168  0.18216173789370305  0.434833880088827  1.0000
  C   C26       1.0  0.8533921264569073  0.8178382617328046  0.9348338805983007  1.0000
  C   C27       1.0  0.38085766120284004  0.2535776033291054  0.6180359139810502  1.0000
  C   C28       1.0  0.8808576620092198  0.7464223977141914  0.11803591417703574  1.0000
  C   C29       1.0  0.7374192791219996  0.9980852574124985  0.36765295598179215  1.0000
  C   C30       1.0  0.23741927940042676  0.0019147436307982947  0.86765295578393  1.0000
  C   C31       1.0  0.604618337559251  0.06427001364846324  0.40346632198063964  1.0000
  C   C32       1.0  0.1046183378376782  0.9357299859780445  0.9034663217827775  1.0000
  C   C33       1.0  0.8355788600444558  0.030045856462857387  0.5427923335242001  1.0000
  C   C34       1.0  0.3355788591207582  0.9699541431636504  0.0427923330166031  1.0000
  C   C35       1.0  0.44045216366874584  0.18428830423678141  0.5268064095000365  1.0000
  C   C36       1.0  0.9404521644751258  0.8157116953897263  0.026806409696022042  1.0000
  C   C37       1.0  0.15217890701205436  0.31202040900158606  0.5259154651415833  1.0000
  C   C38       1.0  0.6521789067336271  0.6879795906249216  0.025915465339445453  1.0000
  C   C39       1.0  0.23689088246312962  0.3165527865567625  0.6170640149149769  1.0000
  C   C40       1.0  0.7368908832695095  0.6834472130697451  0.11706401511096236  1.0000
  N   N1        1.0  0.14476627689997787  0.7327180523717906  0.33125005730882673  1.0000
  N   N2        1.0  0.6447662767388683  0.26728194725471716  0.8312500578183004  1.0000
  N   N3        1.0  0.15159920217967005  0.8443559805456557  0.6343870368928166  1.0000
  N   N4        1.0  0.65159920298605  0.15564402049764092  0.13438703708880226  1.0000
  O   O1        1.0  0.5073859550259556  0.5622929240293023  0.29678850837449033  1.0000
  O   O2        1.0  0.0073859553043828605  0.43770707559720545  0.7967885081766282  1.0000
  O   O3        1.0  0.5090968484106224  0.7260305984277243  0.7036040003044658  1.0000
  O   O4        1.0  0.009096848593624236  0.2739694011987833  0.2036040005678411  1.0000
  S   S1        1.0  0.44659988683510654  0.09769091803861644  0.3291634646827945  1.0000
  S   S2        1.0  0.9465998877588041  0.9023090815878912  0.8291634651903915  1.0000
  Br  Br1       1.0  0.8055611824225558  0.4915945715671408  0.38587363416283  1.0000
  Br  Br2       1.0  0.3055611827009831  0.5084054280593668  0.8858736339649679  1.0000
  Br  Br3       1.0  0.8020836351254003  0.5688671311919843  0.6454806360376821  1.0000
  Br  Br4       1.0  0.302083635308402  0.4311328684345235  0.1454806363010574  1.0000
