data_image0
_chemical_formula_structural       H16C40N4O4S2Cl4
_chemical_formula_sum              "H16 C40 N4 O4 S2 Cl4"
_cell_length_a       9.120793431892514
_cell_length_b       7.002664160829744
_cell_length_c       12.879142532607753
_cell_angle_alpha    90.0
_cell_angle_beta     90.90112294067973
_cell_angle_gamma    90.0

_space_group_name_H-M_alt    "P 1"
_space_group_IT_number       1

loop_
  _space_group_symop_operation_xyz
  'x, y, z'

loop_
  _atom_site_type_symbol
  _atom_site_label
  _atom_site_symmetry_multiplicity
  _atom_site_fract_x
  _atom_site_fract_y
  _atom_site_fract_z
  _atom_site_occupancy
  H   H1        1.0  0.45329758636616113  0.26287848706168393  0.690431850973096  1.0000
  H   H2        1.0  0.9532975864066711  0.7371215128198262  0.19043185112206967  1.0000
  H   H3        1.0  0.7526483267745593  0.9610921251437736  0.2830574471699636  1.0000
  H   H4        1.0  0.25264832786083846  0.038907876165764375  0.7830574477879553  1.0000
  H   H5        1.0  0.9366310587158865  0.013509009974968008  0.5921297368512598  1.0000
  H   H6        1.0  0.43663105881976844  0.986490989906542  0.09212973655032636  1.0000
  H   H7        1.0  0.6983019661888099  0.1327111266021193  0.6583353932248422  1.0000
  H   H8        1.0  0.19830196632337904  0.8672888732793907  0.1583353937003956  1.0000
  H   H9        1.0  0.1431121988949048  0.2504760002359115  0.3648173853509199  1.0000
  H   H10       1.0  0.6431121987910228  0.7495240010736265  0.8648173856518533  1.0000
  H   H11       1.0  0.9634887888037977  0.9297415070136038  0.4067288388803572  1.0000
  H   H12       1.0  0.46348878879397487  0.07025849286790634  0.9067288395078703  1.0000
  H   H13       1.0  0.19496967221806047  0.38133982705284913  0.6909096065851631  1.0000
  H   H14       1.0  0.6949696722585703  0.6186601728286609  0.1909096067341368  1.0000
  H   H15       1.0  0.04110931067526168  0.3711948952999629  0.5313672556087463  1.0000
  H   H16       1.0  0.5411093107157715  0.6288051045815471  0.03136725575771999  1.0000
  C   C1        1.0  0.38341613660513435  0.6634521081258742  0.4422962550200362  1.0000
  C   C2        1.0  0.8834161364705653  0.33654789175563593  0.9422962545444827  1.0000
  C   C3        1.0  0.5168264517978047  0.588990644884973  0.3924032143464974  1.0000
  C   C4        1.0  0.016826451757294893  0.41100935499653707  0.8924032141975236  1.0000
  C   C5        1.0  0.382860916013871  0.7067526453265717  0.5463745896673952  1.0000
  C   C6        1.0  0.8828609160543808  0.29324735598296625  0.046374589816368945  1.0000
  C   C7        1.0  0.6506390853136235  0.5703966459426374  0.4583383189685492  1.0000
  C   C8        1.0  0.15063908527311368  0.42960335393887267  0.9583383188195755  1.0000
  C   C9        1.0  0.6498942511945615  0.6113767848453714  0.5620896672256228  1.0000
  C   C10       1.0  0.1498942513291305  0.3886232150361388  0.06208966770117622  1.0000
  C   C11       1.0  0.2564504279180201  0.6925768205661512  0.37902821916696994  1.0000
  C   C12       1.0  0.756450427814138  0.30742317931535895  0.8790282194679034  1.0000
  C   C13       1.0  0.5166560607545128  0.6849145410725646  0.6130372703684501  1.0000
  C   C14       1.0  0.016656060858394765  0.31508545880894556  0.11303727006751665  1.0000
  C   C15       1.0  0.25671654008563327  0.7821145187335451  0.5943318034917927  1.0000
  C   C16       1.0  0.7567165400954561  0.21788548114796508  0.09433180286427958  1.0000
  C   C17       1.0  0.3857851652609983  0.25782987710581096  0.6197710445147568  1.0000
  C   C18       1.0  0.8857851653015081  0.742170122775699  0.11977104466373047  1.0000
  C   C19       1.0  0.443740062247967  0.18567448190260455  0.5277900433493727  1.0000
  C   C20       1.0  0.9437400622884768  0.8143255179789055  0.02779004349834638  1.0000
  C   C21       1.0  0.5901820682337586  0.1151462202786058  0.507870742038927  1.0000
  C   C22       1.0  0.0901820683376406  0.8848537796029043  0.007870741737993493  1.0000
  C   C23       1.0  0.6073973579315115  0.0645447646237606  0.40202198493554653  1.0000
  C   C24       1.0  0.10739735789100172  0.9354552366857773  0.9020219847865728  1.0000
  C   C25       1.0  0.7408119041746198  0.9972691435158759  0.3645965622151458  1.0000
  C   C26       1.0  0.24081190413411005  0.0027308563656341456  0.8645965620661721  1.0000
  C   C27       1.0  0.35429880292991983  0.1838022687421713  0.436239351581272  1.0000
  C   C28       1.0  0.8542988028260379  0.8161977311393388  0.9362393518822054  1.0000
  C   C29       1.0  0.8431424282820037  0.03016238322286941  0.539362793408803  1.0000
  C   C30       1.0  0.34314242732047073  0.9698376166586407  0.03936279389387799  1.0000
  C   C31       1.0  0.7099265743268575  0.09595357346401473  0.5766563878316892  1.0000
  C   C32       1.0  0.2099265744307395  0.9040464264174953  0.07665638753075564  1.0000
  C   C33       1.0  0.20904157011358035  0.25033867250207853  0.4362000356066621  1.0000
  C   C34       1.0  0.7090415700096984  0.7496613273794316  0.9362000359075955  1.0000
  C   C35       1.0  0.8584728726288454  0.9818163290563034  0.4343085788510096  1.0000
  C   C36       1.0  0.35847287258833566  0.018183670825206645  0.9343085787020359  1.0000
  C   C37       1.0  0.24086348358183945  0.3238421146461626  0.6198284533094679  1.0000
  C   C38       1.0  0.7408634836223493  0.6761578852353475  0.1198284534584416  1.0000
  C   C39       1.0  0.15333779906223255  0.318394572236035  0.5292388311725478  1.0000
  C   C40       1.0  0.6533377991027425  0.681605427645475  0.029238831321521424  1.0000
  N   N1        1.0  0.1508100655743315  0.7214785136006518  0.3291459251444211  1.0000
  N   N2        1.0  0.6508100654704494  0.2785214862808583  0.8291459254453546  1.0000
  N   N3        1.0  0.15335942160969032  0.8464869189582314  0.6335149893597753  1.0000
  N   N4        1.0  0.6533594216502001  0.15351308092327867  0.13351498950874904  1.0000
  O   O1        1.0  0.515250876971357  0.543539556172147  0.29965266148153585  1.0000
  O   O2        1.0  0.015250876930847142  0.45646044370936306  0.7996526613325621  1.0000
  O   O3        1.0  0.5147976095563495  0.7307132103553134  0.705448069636301  1.0000
  O   O4        1.0  0.014797609660231503  0.2692867895261966  0.20544806933536763  1.0000
  S   S1        1.0  0.4467692097574191  0.10025814516811146  0.32889718526899364  1.0000
  S   S2        1.0  0.94676920962285  0.8997418547133987  0.8288971847934402  1.0000
  Cl  Cl1       1.0  0.8028340938637587  0.49223782846549763  0.3972010198572037  1.0000
  Cl  Cl2       1.0  0.3028340938232489  0.5077621728440405  0.8972010197082299  1.0000
  Cl  Cl3       1.0  0.7987298594092999  0.5796248508823332  0.6402284856928689  1.0000
  Cl  Cl4       1.0  0.29872985844776706  0.4203751504272048  0.14022848617794378  1.0000
