data_image0
_chemical_formula_structural       H28C44N4O4S2
_chemical_formula_sum              "H28 C44 N4 O4 S2"
_cell_length_a       6.355577446532256
_cell_length_b       17.34150858099495
_cell_length_c       7.555730559481275
_cell_angle_alpha    90.0
_cell_angle_beta     100.0260661249012
_cell_angle_gamma    90.0

_space_group_name_H-M_alt    "P 1"
_space_group_IT_number       1

loop_
  _space_group_symop_operation_xyz
  'x, y, z'

loop_
  _atom_site_type_symbol
  _atom_site_label
  _atom_site_symmetry_multiplicity
  _atom_site_fract_x
  _atom_site_fract_y
  _atom_site_fract_z
  _atom_site_occupancy
  H   H1        1.0  0.1562752202679573  0.6805588011491718  0.8676390705511299  1.0000
  H   H2        1.0  0.8437247789977167  0.1805588011778588  0.13236092944634403  1.0000
  H   H3        1.0  0.8437247789977167  0.3194411987934542  0.13236092944634403  1.0000
  H   H4        1.0  0.1562752202679573  0.8194411987647672  0.8676390705511299  1.0000
  H   H5        1.0  0.2315706826221181  0.4878228886771188  0.23239741392871083  1.0000
  H   H6        1.0  0.7684293182413001  0.9878228886484318  0.7676025863158101  1.0000
  H   H7        1.0  0.7684293182413001  0.5121771112655072  0.7676025863158101  1.0000
  H   H8        1.0  0.2315706826221181  0.012177111294194243  0.23239741392871083  1.0000
  H   H9        1.0  0.17711825007483786  0.538492435440944  0.924394361032457  1.0000
  H   H10       1.0  0.8228817491908361  0.03849243546963097  0.07560563896501696  1.0000
  H   H11       1.0  0.8228817491908361  0.46150756450168207  0.07560563896501696  1.0000
  H   H12       1.0  0.17711825007483786  0.9615075644729951  0.924394361032457  1.0000
  H   H13       1.0  0.4372355738047408  0.5866873001550753  0.6300659299117775  1.0000
  H   H14       1.0  0.5627644270586774  0.08668730018376236  0.3699340703327435  1.0000
  H   H15       1.0  0.5627644270586774  0.41331269978755064  0.3699340703327435  1.0000
  H   H16       1.0  0.4372355738047408  0.9133126997588636  0.6300659299117775  1.0000
  H   H17       1.0  0.28646944192660095  0.5035204906895719  0.5521200997915826  1.0000
  H   H18       1.0  0.7135305589368173  0.003520490718258912  0.4478799004529384  1.0000
  H   H19       1.0  0.7135305589368173  0.4964795092530541  0.4478799004529384  1.0000
  H   H20       1.0  0.28646944192660095  0.9964795092243671  0.5521200997915826  1.0000
  H   H21       1.0  0.1569852807910616  0.5859366232494764  0.6206672546592481  1.0000
  H   H22       1.0  0.8430147184746124  0.08593662327816334  0.3793327453382258  1.0000
  H   H23       1.0  0.8430147184746124  0.41406337669314963  0.3793327453382258  1.0000
  H   H24       1.0  0.1569852807910616  0.9140633766644627  0.6206672546592481  1.0000
  H   H25       1.0  0.6547137786814187  0.6781686296247968  0.8453857879472733  1.0000
  H   H26       1.0  0.3452862221977775  0.17816862965348373  0.15461421097612396  1.0000
  H   H27       1.0  0.3452862221977775  0.32183137031782927  0.15461421097612396  1.0000
  H   H28       1.0  0.6547137786814187  0.8218313702891423  0.8453857879472733  1.0000
  C   C1        1.0  0.21255377539788997  0.7086002865671666  0.15204275417066768  1.0000
  C   C2        1.0  0.7874462254655282  0.20860028659585353  0.8479572460738534  1.0000
  C   C3        1.0  0.7874462254655282  0.2913997133754595  0.8479572460738534  1.0000
  C   C4        1.0  0.21255377539788997  0.7913997133467725  0.15204275417066768  1.0000
  C   C5        1.0  0.24704792798130762  0.6776176516083587  0.329721660866938  1.0000
  C   C6        1.0  0.7529520728821105  0.1776176516370457  0.670278339377583  1.0000
  C   C7        1.0  0.7529520728821105  0.3223823483342673  0.670278339377583  1.0000
  C   C8        1.0  0.24704792798130762  0.8223823488822315  0.329721660866938  1.0000
  C   C9        1.0  0.2534563879252131  0.5979490827784182  0.3634681084310367  1.0000
  C   C10       1.0  0.746543611340461  0.09794908280710521  0.6365318915664372  1.0000
  C   C11       1.0  0.746543611340461  0.4020509171642078  0.6365318915664372  1.0000
  C   C12       1.0  0.2534563879252131  0.9020509171355209  0.3634681084310367  1.0000
  C   C13       1.0  0.18522287013307956  0.657840434511118  0.004192120714251451  1.0000
  C   C14       1.0  0.8147771291325945  0.15784043453980498  0.9958078792832225  1.0000
  C   C15       1.0  0.8147771291325945  0.34215956543150805  0.9958078792832225  1.0000
  C   C16       1.0  0.18522287013307956  0.8421595654028211  0.004192120714251451  1.0000
  C   C17       1.0  0.22731830135719835  0.5500308301005232  0.2118692806609536  1.0000
  C   C18       1.0  0.7726816979084757  0.05003083012921023  0.7881307193365203  1.0000
  C   C19       1.0  0.7726816979084757  0.4499691704187539  0.7881307193365203  1.0000
  C   C20       1.0  0.22731830135719835  0.9499691703900668  0.2118692806609536  1.0000
  C   C21       1.0  0.194396623272327  0.5791357460680499  0.03556229748169284  1.0000
  C   C22       1.0  0.8056033759933471  0.07913574609673686  0.9644377025157811  1.0000
  C   C23       1.0  0.8056033759933471  0.42086425387457616  0.9644377025157811  1.0000
  C   C24       1.0  0.194396623272327  0.9208642538458891  0.03556229748169284  1.0000
  C   C25       1.0  0.28551745041192156  0.5666014461261051  0.550901026090677  1.0000
  C   C26       1.0  0.7144825504514967  0.06660144615479208  0.44909897415384387  1.0000
  C   C27       1.0  0.7144825504514967  0.4333985538165209  0.44909897415384387  1.0000
  C   C28       1.0  0.28551745041192156  0.9333985537878339  0.550901026090677  1.0000
  C   C29       1.0  0.7401961865518245  0.7104200198304297  0.3069320786959575  1.0000
  C   C30       1.0  0.2598038127138496  0.21042001985911668  0.6930679213015164  1.0000
  C   C31       1.0  0.2598038127138496  0.2895799801121963  0.6930679213015164  1.0000
  C   C32       1.0  0.7401961865518245  0.7895799800835094  0.3069320786959575  1.0000
  C   C33       1.0  0.7075959416444508  0.6656086831251766  0.1358771464916364  1.0000
  C   C34       1.0  0.2924040576212231  0.16560868315386362  0.8641228535058375  1.0000
  C   C35       1.0  0.2924040576212231  0.3343913168174494  0.8641228535058375  1.0000
  C   C36       1.0  0.7075959416444508  0.8343913173654135  0.1358771464916364  1.0000
  C   C37       1.0  0.772777796135214  0.6682941784373342  0.4699243980352524  1.0000
  C   C38       1.0  0.2272222031304601  0.16829417788936996  0.5300756019622215  1.0000
  C   C39       1.0  0.2272222031304601  0.33170582208194305  0.5300756019622215  1.0000
  C   C40       1.0  0.772777796135214  0.8317058220532562  0.4699243980352524  1.0000
  C   C41       1.0  0.6744167236254307  0.7109836570684674  0.9701165981307944  1.0000
  C   C42       1.0  0.3255832772379876  0.21098365709715444  0.02988340211372649  1.0000
  C   C43       1.0  0.3255832772379876  0.28901634287415856  0.02988340211372649  1.0000
  C   C44       1.0  0.6744167236254307  0.7890163428454716  0.9701165981307944  1.0000
  N   N1        1.0  0.8005007393960428  0.6340087887191872  0.6049727649880748  1.0000
  N   N2        1.0  0.19949925986963127  0.1340087887478742  0.39502723500939907  1.0000
  N   N3        1.0  0.19949925986963127  0.3659912112234388  0.39502723500939907  1.0000
  N   N4        1.0  0.8005007393960428  0.8659912111947519  0.6049727649880748  1.0000
  O   O1        1.0  0.7107134236004652  0.5942754352579356  0.1395856729221621  1.0000
  O   O2        1.0  0.28928657566520893  0.09427543528662259  0.8604143270753118  1.0000
  O   O3        1.0  0.28928657566520893  0.4057245646846904  0.8604143270753118  1.0000
  O   O4        1.0  0.7107134236004652  0.9057245646560034  0.1395856729221621  1.0000
  S   S1        1.0  0.2795109003330757  0.7500000002452951  0.4943452805128256  1.0000
  S   S2        1.0  0.7204891005303425  0.25000000027398206  0.5056547197316953  1.0000
