data_image0
_chemical_formula_structural       H40C88N8O8I8
_chemical_formula_sum              "H40 C88 N8 O8 I8"
_cell_length_a       16.40774909027528
_cell_length_b       7.222648426026487
_cell_length_c       15.482390220738464
_cell_angle_alpha    90.0
_cell_angle_beta     90.0
_cell_angle_gamma    90.0

_space_group_name_H-M_alt    "P 1"
_space_group_IT_number       1

loop_
  _space_group_symop_operation_xyz
  'x, y, z'

loop_
  _atom_site_type_symbol
  _atom_site_label
  _atom_site_symmetry_multiplicity
  _atom_site_fract_x
  _atom_site_fract_y
  _atom_site_fract_z
  _atom_site_occupancy
  H   H1        1.0  0.22163525965638642  0.37539626464854  0.5327566585262427  1.0000
  H   H2        1.0  0.7783647403268361  0.6246037345170725  0.03275665855009113  1.0000
  H   H3        1.0  0.7216352593432636  0.6246037345170725  0.5327566585262427  1.0000
  H   H4        1.0  0.27836474063995886  0.37539626464854  0.03275665855009113  1.0000
  H   H5        1.0  0.5519495239823939  0.23202834211909265  0.3538887660033843  1.0000
  H   H6        1.0  0.4480504760008285  0.7679716570465197  0.8538887659795358  1.0000
  H   H7        1.0  0.05194952429551684  0.7679716570465197  0.3538887660033843  1.0000
  H   H8        1.0  0.9480504756877056  0.23202834211909265  0.8538887659795358  1.0000
  H   H9        1.0  0.25511742451503877  0.2680462159868807  0.4185344580270453  1.0000
  H   H10       1.0  0.7448825754681838  0.7319537831787317  0.9185344580031968  1.0000
  H   H11       1.0  0.7551174248113841  0.7319537831787317  0.4185344580270453  1.0000
  H   H12       1.0  0.24488257517183845  0.2680462159868807  0.9185344580031968  1.0000
  H   H13       1.0  0.30182246649146643  0.1425000843584222  0.28036863094857184  1.0000
  H   H14       1.0  0.6981775334917562  0.8574999161917238  0.7803686309247233  1.0000
  H   H15       1.0  0.8018224667878118  0.8574999161917238  0.28036863094857184  1.0000
  H   H16       1.0  0.19817753319541076  0.1425000843584222  0.7803686309247233  1.0000
  H   H17       1.0  0.2930975622274899  0.5774313650615319  0.782472499225134  1.0000
  H   H18       1.0  0.7069024377557326  0.4225686354886142  0.2824724992489825  1.0000
  H   H19       1.0  0.7930975625238352  0.4225686354886142  0.782472499225134  1.0000
  H   H20       1.0  0.2069024374593873  0.5774313650615319  0.2824724992489825  1.0000
  H   H21       1.0  0.4396864335447345  0.555205137155778  0.7396677965564016  1.0000
  H   H22       1.0  0.5603135664384881  0.4447948620098345  0.23966779658025011  1.0000
  H   H23       1.0  0.9396864332316117  0.4447948620098345  0.7396677965564016  1.0000
  H   H24       1.0  0.06031356675161083  0.555205137155778  0.23966779658025011  1.0000
  H   H25       1.0  0.5435540628352192  0.4846802271844599  0.635081433151671  1.0000
  H   H26       1.0  0.45644593714800336  0.5153197733656862  0.13508143317551952  1.0000
  H   H27       1.0  0.043554062538873846  0.5153197733656862  0.635081433151671  1.0000
  H   H28       1.0  0.9564459374443487  0.4846802271844599  0.13508143317551952  1.0000
  H   H29       1.0  0.18573783906814179  0.48796750334682215  0.6777403811941586  1.0000
  H   H30       1.0  0.8142621609150807  0.5120324972033239  0.1777403812180071  1.0000
  H   H31       1.0  0.6857378387550189  0.5120324972033239  0.6777403811941586  1.0000
  H   H32       1.0  0.31426216122820355  0.48796750334682215  0.1777403812180071  1.0000
  H   H33       1.0  0.5851917662301909  0.36899525115972  0.4904061396043183  1.0000
  H   H34       1.0  0.4148082337530316  0.6310047493904262  0.9904061395804697  1.0000
  H   H35       1.0  0.08519176654331374  0.6310047493904262  0.4904061396043183  1.0000
  H   H36       1.0  0.9148082334399087  0.36899525115972  0.9904061395804697  1.0000
  H   H37       1.0  0.45032002618684824  0.12405052235013968  0.24562787759386498  1.0000
  H   H38       1.0  0.5496799737963742  0.8759494768154727  0.7456278775700165  1.0000
  H   H39       1.0  0.9503200264831936  0.8759494768154727  0.24562787759386498  1.0000
  H   H40       1.0  0.04967997350002895  0.12405052235013968  0.7456278775700165  1.0000
  C   C1        1.0  0.2989262672786101  0.8905592921873186  0.5510618947306871  1.0000
  C   C2        1.0  0.7010737327046124  0.1094407083628275  0.05106189410864058  1.0000
  C   C3        1.0  0.7989262669654872  0.1094407083628275  0.5510618947306871  1.0000
  C   C4        1.0  0.20107373301773526  0.8905592921873186  0.05106189410864058  1.0000
  C   C5        1.0  0.38800602111676913  0.7857097279649852  0.4263983426252332  1.0000
  C   C6        1.0  0.6119939788664533  0.21429027120062732  0.9263983426013847  1.0000
  C   C7        1.0  0.8880060208036463  0.21429027120062732  0.4263983426252332  1.0000
  C   C8        1.0  0.1119939791795762  0.7857097279649852  0.9263983426013847  1.0000
  C   C9        1.0  0.5353950454548678  0.8086973234018215  0.43740127741574225  1.0000
  C   C10       1.0  0.4646049545283547  0.19130267714832458  0.9374012773918936  1.0000
  C   C11       1.0  0.035395045158522494  0.19130267714832458  0.43740127741574225  1.0000
  C   C12       1.0  0.9646049548247  0.8086973234018215  0.9374012773918936  1.0000
  C   C13       1.0  0.30461795719208823  0.8076530333360306  0.46351868656477435  1.0000
  C   C14       1.0  0.6953820427911342  0.1923469672141155  0.9635186865409259  1.0000
  C   C15       1.0  0.8046179574884336  0.1923469672141155  0.46351868656477435  1.0000
  C   C16       1.0  0.19538204249478897  0.8076530333360306  0.9635186865409259  1.0000
  C   C17       1.0  0.3670571665171018  0.9284348641193861  0.5988241781673547  1.0000
  C   C18       1.0  0.6329428334661207  0.07156513504622637  0.0988241775453081  1.0000
  C   C19       1.0  0.8670571668134471  0.07156513504622637  0.5988241781673547  1.0000
  C   C20       1.0  0.13294283316977537  0.9284348641193861  0.0988241775453081  1.0000
  C   C21       1.0  0.39418260203852795  0.7162234550084453  0.34104231741474295  1.0000
  C   C22       1.0  0.6058173979446946  0.2837765455417009  0.8410423173908944  1.0000
  C   C23       1.0  0.8941826017254052  0.2837765455417009  0.34104231741474295  1.0000
  C   C24       1.0  0.10581739825781737  0.7162234550084453  0.8410423173908944  1.0000
  C   C25       1.0  0.4562259118428785  0.830075456586818  0.47312398703064173  1.0000
  C   C26       1.0  0.543774088140344  0.16992454396332804  0.9731239870067933  1.0000
  C   C27       1.0  0.9562259115297557  0.16992454396332804  0.47312398703064173  1.0000
  C   C28       1.0  0.04377408845346683  0.830075456586818  0.9731239870067933  1.0000
  C   C29       1.0  0.4496759609989997  0.9005583002713562  0.5631516507264557  1.0000
  C   C30       1.0  0.5503240389842229  0.09944169889425628  0.06315165075030416  1.0000
  C   C31       1.0  0.9496759606858769  0.09944169889425628  0.5631516507264557  1.0000
  C   C32       1.0  0.05032403929734562  0.9005583002713562  0.06315165075030416  1.0000
  C   C33       1.0  0.4618128091982464  0.31558196184470366  0.447620023858916  1.0000
  C   C34       1.0  0.538187190784976  0.6844180387054425  0.9476200238350675  1.0000
  C   C35       1.0  0.9618128088851237  0.6844180387054425  0.447620023858916  1.0000
  C   C36       1.0  0.038187191098098865  0.31558196184470366  0.9476200238350675  1.0000
  C   C37       1.0  0.3523535104170102  0.3988499467341282  0.5516620068495223  1.0000
  C   C38       1.0  0.6476464895662124  0.6011500538160178  0.05166200687337083  1.0000
  C   C39       1.0  0.8523535107133554  0.6011500538160178  0.5516620068495223  1.0000
  C   C40       1.0  0.14764648926986704  0.3988499467341282  0.05166200687337083  1.0000
  C   C41       1.0  0.27003228569761517  0.4137477589566175  0.5774192552016426  1.0000
  C   C42       1.0  0.7299677142856074  0.586252240208995  0.07741925522549119  1.0000
  C   C43       1.0  0.7700322853844923  0.586252240208995  0.5774192552016426  1.0000
  C   C44       1.0  0.22996771459873014  0.4137477589566175  0.07741925522549119  1.0000
  C   C45       1.0  0.3767444319138043  0.3267033947681931  0.4678955049393191  1.0000
  C   C46       1.0  0.6232555680694183  0.673296605781953  0.9678955049154706  1.0000
  C   C47       1.0  0.8767444316006815  0.673296605781953  0.4678955049393191  1.0000
  C   C48       1.0  0.12325556838254102  0.3267033947681931  0.9678955049154706  1.0000
  C   C49       1.0  0.4867469520687318  0.24119559297978924  0.3671679087629183  1.0000
  C   C50       1.0  0.5132530479144907  0.7588044075703569  0.8671679087390697  1.0000
  C   C51       1.0  0.986746952365077  0.7588044075703569  0.3671679087629183  1.0000
  C   C52       1.0  0.013253047618145391  0.24119559297978924  0.8671679087390697  1.0000
  C   C53       1.0  0.3203944161430251  0.2621202664631896  0.40585499205304815  1.0000
  C   C54       1.0  0.6796055838401974  0.7378797340869565  0.9058549920291996  1.0000
  C   C55       1.0  0.8203944164393705  0.7378797340869565  0.40585499205304815  1.0000
  C   C56       1.0  0.1796055841533202  0.2621202664631896  0.9058549920291996  1.0000
  C   C57       1.0  0.3466888272548885  0.1907879310634116  0.3272323225139813  1.0000
  C   C58       1.0  0.6533111733378021  0.8092120681022009  0.8272323224901327  1.0000
  C   C59       1.0  0.8466888269417656  0.8092120681022009  0.3272323225139813  1.0000
  C   C60       1.0  0.15331117304145686  0.1907879310634116  0.8272323224901327  1.0000
  C   C61       1.0  0.3102603789216398  0.5284076788574402  0.7184269780967623  1.0000
  C   C62       1.0  0.6897396210615826  0.47159232169270593  0.21842697812061085  1.0000
  C   C63       1.0  0.8102603792179851  0.47159232169270593  0.7184269780967623  1.0000
  C   C64       1.0  0.18973962076523734  0.5284076788574402  0.21842697812061085  1.0000
  C   C65       1.0  0.39138610327763484  0.5174213168861079  0.694662345197434  1.0000
  C   C66       1.0  0.6086138967055877  0.48257868366403817  0.19466234522128256  1.0000
  C   C67       1.0  0.8913861035739802  0.48257868366403817  0.694662345197434  1.0000
  C   C68       1.0  0.10861389640924238  0.5174213168861079  0.19466234522128256  1.0000
  C   C69       1.0  0.41401229276635837  0.4542381653491226  0.6116312355514529  1.0000
  C   C70       1.0  0.5859877072168641  0.5457618338164898  0.11163123557530151  1.0000
  C   C71       1.0  0.9140122930627037  0.5457618338164898  0.6116312355514529  1.0000
  C   C72       1.0  0.08598770692051881  0.4542381653491226  0.11163123557530151  1.0000
  C   C73       1.0  0.49801184458890985  0.44364945529583893  0.5876258949870377  1.0000
  C   C74       1.0  0.5019881553943127  0.5563505452543072  0.0876258950108862  1.0000
  C   C75       1.0  0.9980118448852551  0.5563505452543072  0.5876258949870377  1.0000
  C   C76       1.0  0.001988155097967353  0.44364945529583893  0.0876258950108862  1.0000
  C   C77       1.0  0.2494939712618021  0.4771407338036422  0.6590278939186517  1.0000
  C   C78       1.0  0.7505060287214205  0.5228592653619702  0.15902789394250028  1.0000
  C   C79       1.0  0.7494939709486792  0.5228592653619702  0.6590278939186517  1.0000
  C   C80       1.0  0.2505060290345432  0.4771407338036422  0.15902789394250028  1.0000
  C   C81       1.0  0.5210309764589757  0.37804164330647794  0.5083453922675129  1.0000
  C   C82       1.0  0.4789690235242468  0.6219583558591344  0.008345392291361406  1.0000
  C   C83       1.0  0.021030976772098517  0.6219583558591344  0.5083453922675129  1.0000
  C   C84       1.0  0.978969023211124  0.37804164330647794  0.008345392291361406  1.0000
  C   C85       1.0  0.4302920474438794  0.18060328608817935  0.30733005447869716  1.0000
  C   C86       1.0  0.5697079525393431  0.8193967144619668  0.8073300544548486  1.0000
  C   C87       1.0  0.9302920471307566  0.8193967144619668  0.30733005447869716  1.0000
  C   C88       1.0  0.06970795285246592  0.18060328608817935  0.8073300544548486  1.0000
  N   N1        1.0  0.5996647343803893  0.7918924351059122  0.40585421181176573  1.0000
  N   N2        1.0  0.4003352656028332  0.20810756405970018  0.9058542117879171  1.0000
  N   N3        1.0  0.09966473469351207  0.20810756405970018  0.40585421181176573  1.0000
  N   N4        1.0  0.9003352652897104  0.7918924351059122  0.9058542117879171  1.0000
  N   N5        1.0  0.4009662333207718  0.6605952994758854  0.2706257987469942  1.0000
  N   N6        1.0  0.5990337666624507  0.33940469968972703  0.7706257987231456  1.0000
  N   N7        1.0  0.900966233007649  0.33940469968972703  0.2706257987469942  1.0000
  N   N8        1.0  0.09903376697557348  0.6605952994758854  0.7706257987231456  1.0000
  O   O1        1.0  0.24492121910748804  0.7546203246387964  0.42190504159043457  1.0000
  O   O2        1.0  0.7550787814852026  0.24537967591134974  0.921905041566586  1.0000
  O   O3        1.0  0.7449212187943653  0.24537967591134974  0.42190504159043457  1.0000
  O   O4        1.0  0.2550787811888573  0.7546203246387964  0.921905041566586  1.0000
  O   O5        1.0  0.5122771029562947  0.9340232311032411  0.6048535721219754  1.0000
  O   O6        1.0  0.4877228970269279  0.06597676944690488  0.10485357214582396  1.0000
  O   O7        1.0  0.01227710326941746  0.06597676944690488  0.6048535721219754  1.0000
  O   O8        1.0  0.9877228967138051  0.9340232311032411  0.10485357214582396  1.0000
  I   I1        1.0  0.3648984243395418  0.02932230776135293  0.7245646040476128  1.0000
  I   I2        1.0  0.6351015756436807  0.9706776927887931  0.22456460407146145  1.0000
  I   I3        1.0  0.8648984240264189  0.9706776927887931  0.7245646040476128  1.0000
  I   I4        1.0  0.13510157595680355  0.02932230776135293  0.22456460407146145  1.0000
  I   I5        1.0  0.18109801555663277  0.9438410618790654  0.5913379897721838  1.0000
  I   I6        1.0  0.8189019844265898  0.056158937286547146  0.09133798979603228  1.0000
  I   I7        1.0  0.681098015852978  0.056158937286547146  0.5913379897721838  1.0000
  I   I8        1.0  0.31890198413024445  0.9438410618790654  0.09133798979603228  1.0000
