data_image0
_chemical_formula_structural       H40C56N48O48
_chemical_formula_sum              "H40 C56 N48 O48"
_cell_length_a       7.473439806963782
_cell_length_b       15.884295301580112
_cell_length_c       17.082688605449675
_cell_angle_alpha    90.0
_cell_angle_beta     100.78664547053353
_cell_angle_gamma    90.0

_space_group_name_H-M_alt    "P 1"
_space_group_IT_number       1

loop_
  _space_group_symop_operation_xyz
  'x, y, z'

loop_
  _atom_site_type_symbol
  _atom_site_label
  _atom_site_symmetry_multiplicity
  _atom_site_fract_x
  _atom_site_fract_y
  _atom_site_fract_z
  _atom_site_occupancy
  H   H1        1.0  0.9270960126380134  0.48551075975229685  0.6693400576889998  1.0000
  H   H2        1.0  0.07290398671457789  0.9855107597025586  0.8306599420171177  1.0000
  H   H3        1.0  0.07290398745517347  0.5144892401482267  0.33065994222495193  1.0000
  H   H4        1.0  0.927096013378609  0.014489240197964926  0.1693400578968342  1.0000
  H   H5        1.0  0.5762242507850188  0.43811106050815707  0.39533802271426005  1.0000
  H   H6        1.0  0.4237757500487637  0.9381110604584189  0.1046619774075261  1.0000
  H   H7        1.0  0.42377574930368217  0.5618889393923665  0.6046619777847092  1.0000
  H   H8        1.0  0.5762242500444231  0.061888939442104704  0.8953380225064257  1.0000
  H   H9        1.0  0.30139195301555305  0.5397646113483618  0.8209917787648233  1.0000
  H   H10       1.0  0.6986080463325522  0.03976461076854743  0.6790082215263116  1.0000
  H   H11       1.0  0.6986080470731479  0.4602353891817143  0.17900822173414593  1.0000
  H   H12       1.0  0.30139195376063466  0.9602353891319761  0.3209917783876402  1.0000
  H   H13       1.0  0.27358911345535913  0.5559330793303473  0.9658551875470398  1.0000
  H   H14       1.0  0.7264108858927462  0.05593307938008553  0.5341448127440951  1.0000
  H   H15       1.0  0.7264108866378278  0.4440669205701762  0.03414481236691194  1.0000
  H   H16       1.0  0.2735891141959547  0.9440669211499907  0.4658551877548742  1.0000
  H   H17       1.0  0.7134498319850783  0.5970724977051112  0.8955178172260885  1.0000
  H   H18       1.0  0.28655016872964545  0.09707249775484937  0.6044821825934836  1.0000
  H   H19       1.0  0.2865501681081087  0.4029275021954124  0.10448218268786331  1.0000
  H   H20       1.0  0.7134498313635416  0.9029275021456742  0.3955178173204682  1.0000
  H   H21       1.0  0.7429386260090856  0.5816298592157851  0.7497545093172143  1.0000
  H   H22       1.0  0.2570613733390198  0.08162985926552345  0.7502454909739205  1.0000
  H   H23       1.0  0.2570613740796154  0.4183701406847383  0.25024549118175493  1.0000
  H   H24       1.0  0.7429386267541671  0.9183701406350001  0.24975450894003123  1.0000
  H   H25       1.0  0.1856451419146838  0.2935302568654833  0.3743385447322866  1.0000
  H   H26       1.0  0.8143548575569665  0.7935302568157451  0.12566145527604497  1.0000
  H   H27       1.0  0.8143548581785032  0.7064697430350403  0.6256614551816653  1.0000
  H   H28       1.0  0.18564514253622053  0.20646974308477847  0.8743385446379068  1.0000
  H   H29       1.0  0.2117056561657219  0.1372510796738416  0.4104274451142362  1.0000
  H   H30       1.0  0.7882943446725467  0.6372510796241033  0.08957255442253252  1.0000
  H   H31       1.0  0.788294343927465  0.8627489202266819  0.5895725547997157  1.0000
  H   H32       1.0  0.21170565542064035  0.3627489202764202  0.9104274454914193  1.0000
  H   H33       1.0  0.7684929186668586  0.1452945683885906  0.4052774701509094  1.0000
  H   H34       1.0  0.2315070808047916  0.6452945683388523  0.09472252985742216  1.0000
  H   H35       1.0  0.2315070814263283  0.8547054321414856  0.5947225297630424  1.0000
  H   H36       1.0  0.7684929192883954  0.35470543219122386  0.9052774700565297  1.0000
  H   H37       1.0  0.7390836847345746  0.3006161639115959  0.36697011075580793  1.0000
  H   H38       1.0  0.26091631473707555  0.8006161638618576  0.13302988925252354  1.0000
  H   H39       1.0  0.2609163153586123  0.6993838359889277  0.6330298891581438  1.0000
  H   H40       1.0  0.7390836853516255  0.19938383603866588  0.8669701112464457  1.0000
  C   C1        1.0  0.7342941456796734  0.4290784369465863  0.5634642472197466  1.0000
  C   C2        1.0  0.26570585367291794  0.9290784368968481  0.9365357524863708  1.0000
  C   C3        1.0  0.2657058544135135  0.5709215629539373  0.43653575269420514  1.0000
  C   C4        1.0  0.734294146420269  0.07092156300367546  0.063464247427581  1.0000
  C   C5        1.0  0.6728628383839851  0.31331954836579495  0.6154586693843266  1.0000
  C   C6        1.0  0.3271371609641204  0.8133195483160568  0.8845413309068083  1.0000
  C   C7        1.0  0.327137161709202  0.6866804515347286  0.38454133052962514  1.0000
  C   C8        1.0  0.6728628391245806  0.18668045158446683  0.11545866959216097  1.0000
  C   C9        1.0  0.7997742546874405  0.3563543218336491  0.6722506344079887  1.0000
  C   C10       1.0  0.20022574602279722  0.8563543217839109  0.8277493659966009  1.0000
  C   C11       1.0  0.20022574540126045  0.6436456780668744  0.32774936609098065  1.0000
  C   C12       1.0  0.7997742540703897  0.14364567811661266  0.1722506339173509  1.0000
  C   C13       1.0  0.7451537134860814  0.49449482654849924  0.50604835838734  1.0000
  C   C14       1.0  0.25484628722864217  0.9944948264987611  0.9939516414322322  1.0000
  C   C15       1.0  0.25484628660710545  0.5055051733520243  0.49395164152661186  1.0000
  C   C16       1.0  0.7451537128645447  0.005505173401762507  0.00604835848171967  1.0000
  C   C17       1.0  0.8223294306247853  0.6074918985571928  0.4544918045362835  1.0000
  C   C18       1.0  0.17767056884686505  0.10749189860693101  0.04550819547204806  1.0000
  C   C19       1.0  0.1776705694684018  0.3925081013433308  0.5455081953776683  1.0000
  C   C20       1.0  0.822329431246322  0.8925081012935926  0.9544918044419037  1.0000
  C   C21       1.0  0.7141667005012462  0.5610756820362964  0.39317640337090964  1.0000
  C   C22       1.0  0.2858333003325364  0.061075682086034595  0.1068235967508765  1.0000
  C   C23       1.0  0.2858332995874548  0.43892431786422714  0.6068235971280597  1.0000
  C   C24       1.0  0.7141666997606505  0.938924317814489  0.8931764031630752  1.0000
  C   C25       1.0  0.17261996987757963  0.5540886852641476  0.8386308498659945  1.0000
  C   C26       1.0  0.8273800294705257  0.054088684684333074  0.6613691504251404  1.0000
  C   C27       1.0  0.8273800302156072  0.4459113152659287  0.1613691500479573  1.0000
  C   C28       1.0  0.17261996925604287  0.9459113152161905  0.3386308499603743  1.0000
  C   C29       1.0  0.1579053486743728  0.563500738311608  0.9170229444738337  1.0000
  C   C30       1.0  0.8420946520358649  0.06350073836134623  0.5829770559307557  1.0000
  C   C31       1.0  0.8420946514143282  0.4364992615889155  0.08297705602513551  1.0000
  C   C32       1.0  0.15790534805732204  0.9364992615391773  0.417022943983196  1.0000
  C   C33       1.0  0.8425593878644048  0.5849952102738635  0.8772872858252951  1.0000
  C   C34       1.0  0.1574406128503189  0.0849952103236017  0.622712713994277  1.0000
  C   C35       1.0  0.1574406122287822  0.4150047896266601  0.12271271408865664  1.0000
  C   C36       1.0  0.842559387242868  0.9150047895769218  0.3772872859196749  1.0000
  C   C37       1.0  0.858502743107218  0.5760125883009639  0.7990383149203913  1.0000
  C   C38       1.0  0.14149725760301973  0.07601258835070206  0.7009616854841981  1.0000
  C   C39       1.0  0.141497256981483  0.4239874115995597  0.2009616855785779  1.0000
  C   C40       1.0  0.8585027424901672  0.9239874115498214  0.29903831442975365  1.0000
  C   C41       1.0  0.31223490773814944  0.25837275510684704  0.3803395802281326  1.0000
  C   C42       1.0  0.6877650917335008  0.7583727550571089  0.11966041978019899  1.0000
  C   C43       1.0  0.6877650923550375  0.7416272454232292  0.6196604196858193  1.0000
  C   C44       1.0  0.31223490835968615  0.24162724547296735  0.8803395801337528  1.0000
  C   C45       1.0  0.32606777911661206  0.1742637962494089  0.3986691239888179  1.0000
  C   C46       1.0  0.6739322217171704  0.6742637961996707  0.10133087613296829  1.0000
  C   C47       1.0  0.6739322209765748  0.8257362036511146  0.601330875925134  1.0000
  C   C48       1.0  0.32606777837601647  0.3257362037008529  0.8986691237809835  1.0000
  C   C49       1.0  0.6393919356366699  0.17905460934845963  0.3956947855063255  1.0000
  C   C50       1.0  0.3606080638349803  0.6790546092987214  0.10430521450200601  1.0000
  C   C51       1.0  0.36060806445651705  0.8209453911816166  0.6043052144076262  1.0000
  C   C52       1.0  0.6393919362582067  0.32094539060180216  0.8956947854119458  1.0000
  C   C53       1.0  0.6239907400203363  0.2629648373248567  0.3766753016680872  1.0000
  C   C54       1.0  0.3760092594557998  0.7629648372751184  0.12332469775522688  1.0000
  C   C55       1.0  0.3760092600728506  0.7370351625756668  0.6233246982458647  1.0000
  C   C56       1.0  0.6239907406373871  0.23703516262540508  0.8766753021587249  1.0000
  N   N1        1.0  0.8362967142199946  0.43045441677981355  0.6387991202443217  1.0000
  N   N2        1.0  0.1637032864947289  0.9304544167300752  0.8612008795752504  1.0000
  N   N3        1.0  0.16370328587319216  0.56954558312071  0.3612008796696301  1.0000
  N   N4        1.0  0.8362967135984579  0.06954558317044823  0.13879912033870143  1.0000
  N   N5        1.0  0.6324715536816531  0.3591719306195767  0.5479987535493428  1.0000
  N   N6        1.0  0.3675284470285846  0.8591719311993911  0.9520012468552468  1.0000
  N   N7        1.0  0.36752844641153387  0.6408280692809468  0.4520012463646091  1.0000
  N   N8        1.0  0.6324715530601163  0.14082806933068512  0.047998753643722504  1.0000
  N   N9        1.0  0.5777947620743763  0.23580054380048  0.6248329324719734  1.0000
  N   N10       1.0  0.4222052372782152  0.7358005437507418  0.8751670672341441  1.0000
  N   N11       1.0  0.4222052380188107  0.7641994561000435  0.3751670674419785  1.0000
  N   N12       1.0  0.5777947628149719  0.2641994561497818  0.12483293267980772  1.0000
  N   N13       1.0  0.8909207907470716  0.33191591442369717  0.7500569129022814  1.0000
  N   N14       1.0  0.10907920996765212  0.831915914373959  0.7499430869172908  1.0000
  N   N15       1.0  0.10907920934611538  0.6680840854768264  0.2499430870116705  1.0000
  N   N16       1.0  0.8909207901255348  0.1680840855265646  0.25005691299666105  1.0000
  N   N17       1.0  0.6659721958878858  0.48940984994321257  0.427444411358985  1.0000
  N   N18       1.0  0.3340278035837644  0.9894098498934745  0.0725555886493466  1.0000
  N   N19       1.0  0.33402780420530115  0.510590149957311  0.5725555885549668  1.0000
  N   N20       1.0  0.6659721965094225  0.010590150007049187  0.9274444112646052  1.0000
  N   N21       1.0  0.840597194487286  0.5656666814237697  0.52390935699605  1.0000
  N   N22       1.0  0.1594028048653054  0.06566668084395531  0.9760906427100674  1.0000
  N   N23       1.0  0.15940280560590098  0.43433331910630646  0.4760906429179018  1.0000
  N   N24       1.0  0.8405971952278816  0.9343333190565682  0.023909357203884325  1.0000
  N   N25       1.0  0.9007149625554236  0.6904037271901564  0.45280037756850694  1.0000
  N   N26       1.0  0.09928503691622664  0.19040372723989463  0.04719962243982467  1.0000
  N   N27       1.0  0.09928503753776338  0.3095962727103671  0.547199622345445  1.0000
  N   N28       1.0  0.9007149631769603  0.8095962726606288  0.9528003774741272  1.0000
  N   N29       1.0  0.6548768592008241  0.5754614539992029  0.3095430271023702  1.0000
  N   N30       1.0  0.34512314163744434  0.07546145404894118  0.1904569724343985  1.0000
  N   N31       1.0  0.34512314089236285  0.4245385459013206  0.6904569728115816  1.0000
  N   N32       1.0  0.6548768584557425  0.9245385458515825  0.8095430274795533  1.0000
  N   N33       1.0  0.02356617602407965  0.560179947618756  0.7796033672026264  1.0000
  N   N34       1.0  0.9764338233285117  0.06017994766849423  0.7203966325034911  1.0000
  N   N35       1.0  0.9764338240691073  0.4398200529113202  0.2203966327113254  1.0000
  N   N36       1.0  0.023566176764675238  0.939820052861582  0.27960336741046077  1.0000
  N   N37       1.0  0.9923949780839015  0.5805561043103156  0.9373723684422561  1.0000
  N   N38       1.0  0.00760502263082219  0.08055610436005381  0.562627631377316  1.0000
  N   N39       1.0  0.007605022009285453  0.41944389559020795  0.0626276314716958  1.0000
  N   N40       1.0  0.9923949774623648  0.9194438961700223  0.43737236853663575  1.0000
  N   N41       1.0  0.46082676463722105  0.30281209324542857  0.36913974464575544  1.0000
  N   N42       1.0  0.5391732361965615  0.802812093825243  0.1308602554760307  1.0000
  N   N43       1.0  0.539173235455966  0.697187906655095  0.6308602552681963  1.0000
  N   N44       1.0  0.46082676389662547  0.19718790670483322  0.8691397444379212  1.0000
  N   N45       1.0  0.49014483549023646  0.13325734757584357  0.4062814304688637  1.0000
  N   N46       1.0  0.5098551639814137  0.6332573475261053  0.09371856953946785  1.0000
  N   N47       1.0  0.5098551645984645  0.8667426529542327  0.5937185700301055  1.0000
  N   N48       1.0  0.49014483611177323  0.3667426523744182  0.9062814303744839  1.0000
  O   O1        1.0  0.516504106435735  0.19548795593664814  0.5635302334681969  1.0000
  O   O2        1.0  0.4834958929168564  0.6954879558869099  0.9364697662379207  1.0000
  O   O3        1.0  0.483495893657452  0.8045120439638754  0.436469766445755  1.0000
  O   O4        1.0  0.5165041071763306  0.30451204401361365  0.06353023367603115  1.0000
  O   O5        1.0  0.5617134511688361  0.21539891477965944  0.6932818103785282  1.0000
  O   O6        1.0  0.43828654954140156  0.7153989147299212  0.8067181900260613  1.0000
  O   O7        1.0  0.4382865489243508  0.7846010851208641  0.30671818953542357  1.0000
  O   O8        1.0  0.5617134505517853  0.28460108517060234  0.19328180988789048  1.0000
  O   O9        1.0  0.9200162315579412  0.25566854323062194  0.7621850464381025  1.0000
  O   O10       1.0  0.07998376915229653  0.7556685431808837  0.737814953966487  1.0000
  O   O11       1.0  0.0799837685352458  0.7443314566699016  0.23781495347584927  1.0000
  O   O12       1.0  0.9200162309364043  0.24433145671963985  0.26218504653248226  1.0000
  O   O13       1.0  0.9340947144947269  0.38869672357361773  0.7999633635070182  1.0000
  O   O14       1.0  0.06590528621551087  0.8886967235238795  0.7000366368975713  1.0000
  O   O15       1.0  0.06590528559846011  0.6113032763269058  0.20003663640693356  1.0000
  O   O16       1.0  0.9340947138776761  0.11130327637664406  0.2999633630163805  1.0000
  O   O17       1.0  0.022174077639084074  0.7103546626256413  0.5096001753286834  1.0000
  O   O18       1.0  0.9778259217135074  0.21035466267537947  0.990399824377434  1.0000
  O   O19       1.0  0.9778259224541029  0.2896453372748823  0.49039982458526843  1.0000
  O   O20       1.0  0.022174078379679663  0.7896453372251441  0.009600175536517755  1.0000
  O   O21       1.0  0.8406078838279959  0.7359827595774465  0.3948094681222201  1.0000
  O   O22       1.0  0.15939211564365421  0.2359827589976321  0.1051905318861114  1.0000
  O   O23       1.0  0.15939211626070499  0.2640172409526297  0.605190532376749  1.0000
  O   O24       1.0  0.8406078844495328  0.7640172409028915  0.8948094680278403  1.0000
  O   O25       1.0  0.7497367029492097  0.6211478905846403  0.2749836725383372  1.0000
  O   O26       1.0  0.2502632965224405  0.12114789063437852  0.22501632746999428  1.0000
  O   O27       1.0  0.25026329714397727  0.37885210931588326  0.7250163273756146  1.0000
  O   O28       1.0  0.7497367022041281  0.8788521092661451  0.7749836729155204  1.0000
  O   O29       1.0  0.5111379335419219  0.540299045507311  0.2769942563738594  1.0000
  O   O30       1.0  0.48886206592972825  0.04029904555704923  0.22300574363447215  1.0000
  O   O31       1.0  0.488862066551265  0.4597009543932125  0.7230057435400924  1.0000
  O   O32       1.0  0.5111379341634588  0.9597009543434742  0.7769942562794796  1.0000
  O   O33       1.0  0.03971566185839781  0.5485707974173204  0.7041689176597125  1.0000
  O   O34       1.0  0.9602843388563259  0.04857079683750607  0.7958310821598595  1.0000
  O   O35       1.0  0.9602843382347892  0.45142920311275575  0.29583108225423926  1.0000
  O   O36       1.0  0.03971566123686107  0.9514292030630175  0.20416891775409224  1.0000
  O   O37       1.0  0.9788498319739091  0.5919545186914678  0.010313268926861335  1.0000
  O   O38       1.0  0.02115016749774119  0.09195451874120607  0.48968673108147015  1.0000
  O   O39       1.0  0.021150168119277925  0.40804548120905576  0.9896867309870905  1.0000
  O   O40       1.0  0.9788498312333135  0.9080454811593175  0.5103132687190269  1.0000
  O   O41       1.0  0.4444552133188644  0.3838042553511043  0.3513062390511139  1.0000
  O   O42       1.0  0.5555447861527858  0.8838042553013661  0.14869376095721767  1.0000
  O   O43       1.0  0.5555447867743225  0.6161957445494192  0.6486937608628379  1.0000
  O   O44       1.0  0.4444552139404011  0.11619574459915748  0.8513062389567341  1.0000
  O   O45       1.0  0.5052059223968628  0.05488372971215648  0.42446710772502994  1.0000
  O   O46       1.0  0.4947940784414057  0.5548837296624182  0.0755328918117387  1.0000
  O   O47       1.0  0.49479407769632416  0.9451162701883671  0.5755328921889219  1.0000
  O   O48       1.0  0.5052059216517812  0.4451162702381053  0.9244671081022131  1.0000
