data_image0
_chemical_formula_structural       H16C26N6O4Br2
_chemical_formula_sum              "H16 C26 N6 O4 Br2"
_cell_length_a       3.8600252466679525
_cell_length_b       11.69893231425273
_cell_length_c       14.647137674443652
_cell_angle_alpha    70.29606000389407
_cell_angle_beta     81.91828944748956
_cell_angle_gamma    87.69036164434524

_space_group_name_H-M_alt    "P 1"
_space_group_IT_number       1

loop_
  _space_group_symop_operation_xyz
  'x, y, z'

loop_
  _atom_site_type_symbol
  _atom_site_label
  _atom_site_symmetry_multiplicity
  _atom_site_fract_x
  _atom_site_fract_y
  _atom_site_fract_z
  _atom_site_occupancy
  H   H1        1.0  0.936751281973487  0.8121554208246422  0.26077074984656773  1.0000
  H   H2        1.0  0.06324871822821777  0.18784457848179187  0.739229250120635  1.0000
  H   H3        1.0  0.8016987998878243  0.8973345202030141  0.5277997859904411  1.0000
  H   H4        1.0  0.19830120031388052  0.10266547910342  0.4722002139767616  1.0000
  H   H5        1.0  0.07896192578808547  0.7006673543765388  0.6131724671710155  1.0000
  H   H6        1.0  0.9210380743125054  0.2993326457851012  0.38682753279682863  1.0000
  H   H7        1.0  0.29396619280317005  0.5624716449946032  0.5226462000305488  1.0000
  H   H8        1.0  0.7060338072974209  0.43752835516703686  0.4773537999372951  1.0000
  H   H9        1.0  0.17251440715564925  0.210270547943489  0.21106913458198714  1.0000
  H   H10       1.0  0.8274855930460555  0.789729451362945  0.7889308653852155  1.0000
  H   H11       1.0  0.21483828096743665  0.039146533532737116  0.14412751792682646  1.0000
  H   H12       1.0  0.7851617191331541  0.9608534666289029  0.8558724820410175  1.0000
  H   H13       1.0  0.7803066637263297  0.27725696695450824  0.8919626351961022  1.0000
  H   H14       1.0  0.21969333637426114  0.7227430332071317  0.10803736477174185  1.0000
  H   H15       1.0  0.7533519125955154  0.4391423533863863  0.9696582662375203  1.0000
  H   H16       1.0  0.24664808750507555  0.560857646775254  0.030341733730323703  1.0000
  C   C1        1.0  0.137542089069286  0.6773639604550056  0.38458966843367226  1.0000
  C   C2        1.0  0.8624579110313051  0.3226360397066345  0.6154103315341718  1.0000
  C   C3        1.0  0.969820194073053  0.7860931682227509  0.3376911698193741  1.0000
  C   C4        1.0  0.03017980602753789  0.21390683193888924  0.6623088301484699  1.0000
  C   C5        1.0  0.8560926656557639  0.8624099477378858  0.3908332102148018  1.0000
  C   C6        1.0  0.1439073344448268  0.1375900524237541  0.6091667897530424  1.0000
  C   C7        1.0  0.896059854269379  0.8352905607708334  0.4890797055429958  1.0000
  C   C8        1.0  0.10394014583121197  0.16470943939080682  0.5109202944248482  1.0000
  C   C9        1.0  0.049276669119629156  0.7251528027977765  0.5360468540558585  1.0000
  C   C10       1.0  0.9507233310820757  0.2748471965086576  0.46395314591134407  1.0000
  C   C11       1.0  0.1691014927041475  0.64700037664099  0.48495602570123586  1.0000
  C   C12       1.0  0.8308985070582304  0.352999623215646  0.5150439749984853  1.0000
  C   C13       1.0  0.28269249003329033  0.6023214307652917  0.33055972785467896  1.0000
  C   C14       1.0  0.7173075100673006  0.3976785693963485  0.6694402721131649  1.0000
  C   C15       1.0  0.421743341096094  0.5406534498866958  0.28334689915549716  1.0000
  C   C16       1.0  0.5782566590044969  0.45934655027494403  0.7166531008123469  1.0000
  C   C17       1.0  0.08370217536462425  0.22140785431301166  0.14110515603321555  1.0000
  C   C18       1.0  0.9162978247359665  0.7785921458486285  0.8588948439346284  1.0000
  C   C19       1.0  0.10633878741115564  0.12581473502373153  0.1046325996569363  1.0000
  C   C20       1.0  0.8936612126894352  0.8741852651379085  0.8953674003109077  1.0000
  C   C21       1.0  0.9875981752104859  0.14436956368713638  0.014656064878263203  1.0000
  C   C22       1.0  0.012401824890105008  0.8556304364745038  0.9853439350895808  1.0000
  C   C23       1.0  0.8668692667420638  0.2592857859938781  0.9631274694296323  1.0000
  C   C24       1.0  0.13313073335852713  0.740714214167762  0.036872530538211636  1.0000
  C   C25       1.0  0.8512025034796182  0.3488801553148259  0.006642360419167737  1.0000
  C   C26       1.0  0.14879749662097266  0.6511198448468141  0.9933576395486763  1.0000
  N   N1        1.0  0.6875172583269913  0.9762083063449382  0.3411151534589625  1.0000
  N   N2        1.0  0.3124827418747136  0.023791692961495994  0.6588848465082401  1.0000
  N   N3        1.0  0.9532430330159545  0.3307085378890122  0.09432552074709458  1.0000
  N   N4        1.0  0.046756964491837034  0.6692914622720824  0.9056744792249771  1.0000
  N   N5        1.0  0.9869256337677079  0.05342071552122347  0.9706821873052386  1.0000
  N   N6        1.0  0.013074366332882984  0.9465792846404165  0.029317812662605466  1.0000
  O   O1        1.0  0.5638609393580462  0.9845948941896471  0.26529370836726524  1.0000
  O   O2        1.0  0.4361390581497452  0.015405105971447699  0.7347062916048064  1.0000
  O   O3        1.0  0.6758290438193413  0.05887226091385207  0.37703818901798414  1.0000
  O   O4        1.0  0.32417095628124964  0.9411277392477881  0.6229618109498598  1.0000
  Br  Br1       1.0  0.6363119861583546  0.45489213862201167  0.20976342679008628  1.0000
  Br  Br2       1.0  0.36368801394223627  0.5451078615396284  0.7902365731777576  1.0000
