data_image0
_chemical_formula_structural       H44C84N12O36S16
_chemical_formula_sum              "H44 C84 N12 O36 S16"
_cell_length_a       18.577479798732227
_cell_length_b       6.989184894942173
_cell_length_c       19.06916574138464
_cell_angle_alpha    90.0
_cell_angle_beta     117.11720173987761
_cell_angle_gamma    90.0

_space_group_name_H-M_alt    "P 1"
_space_group_IT_number       1

loop_
  _space_group_symop_operation_xyz
  'x, y, z'

loop_
  _atom_site_type_symbol
  _atom_site_label
  _atom_site_symmetry_multiplicity
  _atom_site_fract_x
  _atom_site_fract_y
  _atom_site_fract_z
  _atom_site_occupancy
  H   H1        1.0  0.5612318375112395  0.47809493384816903  0.7507686650288353  1.0000
  H   H2        1.0  0.9387681625182662  0.9780949327792194  0.749231334969203  1.0000
  H   H3        1.0  0.43876816291323545  0.5219050668754959  0.24923133497766473  1.0000
  H   H4        1.0  0.06123183730146465  0.021905066513663425  0.25076866476448423  1.0000
  H   H5        1.0  0.36529386945152653  0.534135837885984  0.8127565678162191  1.0000
  H   H6        1.0  0.13470613069135848  0.034135837524151516  0.6872434324179814  1.0000
  H   H7        1.0  0.6347061303682042  0.46586416283768095  0.18724343191746812  1.0000
  H   H8        1.0  0.8652938697281913  0.9658641631995134  0.3127565681107211  1.0000
  H   H9        1.0  0.15472645708006252  0.2506705726540227  0.37570986899770475  1.0000
  H   H10       1.0  0.3452735425249683  0.7506705730158552  0.12429013099383347  1.0000
  H   H11       1.0  0.8452735427347432  0.7493294266388602  0.6242901312581847  1.0000
  H   H12       1.0  0.6547264572898374  0.2493294262770277  0.875709869262056  1.0000
  H   H13       1.0  0.404274299501385  0.3356732401939713  0.4260715633364447  1.0000
  H   H14       1.0  0.09572570070838997  0.8356732405558037  0.0739284369279066  1.0000
  H   H15       1.0  0.5957257009230901  0.6643267590989116  0.5739284366700554  1.0000
  H   H16       1.0  0.9042742991064158  0.1643267601678611  0.926071563327983  1.0000
  H   H17       1.0  0.5156211338133196  0.7555053170536691  0.018630812264889867  1.0000
  H   H18       1.0  0.9843788662830764  0.2555053166918365  0.4813691877632994  1.0000
  H   H19       1.0  0.48437886660623036  0.2444946836699959  0.9813691882638126  1.0000
  H   H20       1.0  0.015621133536654676  0.7444946840318284  0.5186308119703877  1.0000
  H   H21       1.0  0.5870610344852036  0.8251280595214122  0.9834476021343391  1.0000
  H   H22       1.0  0.9129389655443023  0.3251280605903618  0.5165523978636992  1.0000
  H   H23       1.0  0.41293896532960217  0.17487193977147064  0.016552398121550287  1.0000
  H   H24       1.0  0.08706103488017278  0.6748719401333032  0.48344760214280097  1.0000
  H   H25       1.0  0.5965153224144069  0.5961589717014454  0.029215716043921924  1.0000
  H   H26       1.0  0.903484677681989  0.09615897277039495  0.4707842839842673  1.0000
  H   H27       1.0  0.4034846774053241  0.40384102759143753  0.9707842836897653  1.0000
  H   H28       1.0  0.09651532273756093  0.90384102795327  0.5292157165444351  1.0000
  H   H29       1.0  0.5771270138330614  0.0036345382733232413  0.823853169469225  1.0000
  H   H30       1.0  0.9228729861964444  0.5036345386351557  0.6761468305288134  1.0000
  H   H31       1.0  0.42287298598666945  0.9963654610195597  0.17614683026446212  1.0000
  H   H32       1.0  0.07712701422803066  0.4963654606577272  0.3238531694776868  1.0000
  H   H33       1.0  0.44064622948918136  0.006220688199487063  0.8318573414350213  1.0000
  H   H34       1.0  0.05935377065370371  0.5062206885613195  0.668142658799179  1.0000
  H   H35       1.0  0.5593537703305496  0.9937793110933959  0.16814265829866576  1.0000
  H   H36       1.0  0.9406462297658462  0.49377931073156334  0.3318573417295235  1.0000
  H   H37       1.0  0.3479057403197034  0.7760510490894486  0.35987006751319495  1.0000
  H   H38       1.0  0.1520942598900715  0.2760510501583981  0.1401299327511563  1.0000
  H   H39       1.0  0.6520942595000274  0.22394895020343436  0.6401299322204922  1.0000
  H   H40       1.0  0.8479057405294784  0.7239489505652668  0.8598700677775463  1.0000
  H   H41       1.0  0.20790581174486872  0.7981097501135935  0.3585702286315154  1.0000
  H   H42       1.0  0.2920941884698314  0.2981097497517612  0.14142977111063354  1.0000
  H   H43       1.0  0.7920941880748622  0.20189025061007132  0.6414297711021718  1.0000
  H   H44       1.0  0.7079058119546436  0.7018902495411218  0.8585702288958665  1.0000
  C   C1        1.0  0.4970555456366296  0.4700736723072746  0.7350039683186392  1.0000
  C   C2        1.0  0.002944453901511142  0.970073672669107  0.7649960316427481  1.0000
  C   C3        1.0  0.5029444541831012  0.5299263269856083  0.26499603141504785  1.0000
  C   C4        1.0  0.9970555459132946  0.029926328054557867  0.23500396861314132  1.0000
  C   C5        1.0  0.4699925399477251  0.5058277128364982  0.7918420955787161  1.0000
  C   C6        1.0  0.03000746019515989  0.00582771247466576  0.7081579046554843  1.0000
  C   C7        1.0  0.5300074598720058  0.49417228788716666  0.208157904154971  1.0000
  C   C8        1.0  0.9699925402243901  0.9941722882489992  0.29184209587321824  1.0000
  C   C9        1.0  0.3872163249081483  0.4989497806137025  0.7701636988773214  1.0000
  C   C10       1.0  0.11278367523473679  0.9989497809755349  0.7298363013568792  1.0000
  C   C11       1.0  0.6127836749115826  0.5010502186791804  0.2298363008563658  1.0000
  C   C12       1.0  0.8872163251848132  0.001050219748129976  0.27016369917182337  1.0000
  C   C13       1.0  0.33104459728501073  0.46077168631359344  0.692219931280248  1.0000
  C   C14       1.0  0.16895540285787433  0.9607716866754259  0.8077800689539525  1.0000
  C   C15       1.0  0.6689554031394643  0.5392283129792895  0.30778006872625224  1.0000
  C   C16       1.0  0.8310445969569314  0.039228314048239024  0.192219931301937  1.0000
  C   C17       1.0  0.3556165525351805  0.4198127627333683  0.6339704207033415  1.0000
  C   C18       1.0  0.14438344700296038  0.9198127630952009  0.8660295792580459  1.0000
  C   C19       1.0  0.6443834472845504  0.5801872365595145  0.3660295790303456  1.0000
  C   C20       1.0  0.8556165528118453  0.08018723762846411  0.13397042099784362  1.0000
  C   C21       1.0  0.31564161567058996  0.3680406325867107  0.5512735107419764  1.0000
  C   C22       1.0  0.18435838447229505  0.8680406315177611  0.948726489492224  1.0000
  C   C23       1.0  0.6843583847489599  0.6319593681369542  0.448726489786726  1.0000
  C   C24       1.0  0.8156416153474357  0.1319593677751218  0.05127351024146313  1.0000
  C   C25       1.0  0.2358990997189241  0.32230901083045943  0.4955962011099312  1.0000
  C   C26       1.0  0.2641009004908509  0.8223090111922919  0.004403799154420004  1.0000
  C   C27       1.0  0.7641009001008068  0.6776909898932055  0.504403798623756  1.0000
  C   C28       1.0  0.7358990999286991  0.17769098953137302  0.9955962013742824  1.0000
  C   C29       1.0  0.21600070530010776  0.2924363485474669  0.4166367402584639  1.0000
  C   C30       1.0  0.28399929491459236  0.7924363489092994  0.08336325948368498  1.0000
  C   C31       1.0  0.7839992945196232  0.707563652176198  0.5833632594752233  1.0000
  C   C32       1.0  0.7160007049051386  0.20756365181436554  0.9166367402500023  1.0000
  C   C33       1.0  0.2757847277496563  0.2991350338310514  0.3915997143965574  1.0000
  C   C34       1.0  0.2242152724601187  0.7991350341928838  0.10840028586779386  1.0000
  C   C35       1.0  0.7242152720651495  0.7008649654618314  0.608400285859332  1.0000
  C   C36       1.0  0.7757847279643565  0.20086496653078106  0.8915997141387063  1.0000
  C   C37       1.0  0.3574656495263866  0.3314981195699459  0.44538691946215064  1.0000
  C   C38       1.0  0.14253435007864415  0.8314981199317784  0.054613080529387674  1.0000
  C   C39       1.0  0.6425343502933443  0.6685018811537191  0.5546130802715366  1.0000
  C   C40       1.0  0.8574656497361617  0.16850188079188655  0.9453869197265019  1.0000
  C   C41       1.0  0.37518180600095347  0.3646454369585091  0.522754548601683  1.0000
  C   C42       1.0  0.12481819414193157  0.8646454373203415  0.9772454516325174  1.0000
  C   C43       1.0  0.6248181944185964  0.6353545623343738  0.47724545192701956  1.0000
  C   C44       1.0  0.8751818056777994  0.13535456340332333  0.022754548101169697  1.0000
  C   C45       1.0  0.456341977121137  0.39765477402254296  0.5901277580029248  1.0000
  C   C46       1.0  0.043658023021748024  0.8976547743843754  0.9098722422312757  1.0000
  C   C47       1.0  0.5436580226985939  0.6023452252703398  0.40987224173076225  1.0000
  C   C48       1.0  0.9563419767930577  0.1023452249085075  0.09012775802461392  1.0000
  C   C49       1.0  0.440919936707677  0.42859753820045204  0.6589596866619494  1.0000
  C   C50       1.0  0.05908006343520807  0.9285975385622844  0.841040313572251  1.0000
  C   C51       1.0  0.5590800631120539  0.5714024625232129  0.34104031307173766  1.0000
  C   C52       1.0  0.9409199369843418  0.07140246216138042  0.1589596869564516  1.0000
  C   C53       1.0  0.5303873274610118  0.571815002761215  0.8703364828886406  1.0000
  C   C54       1.0  0.9696126725684941  0.0718150023993825  0.6296635171093977  1.0000
  C   C55       1.0  0.46961267235871906  0.42818499796244996  0.1296635168450464  1.0000
  C   C56       1.0  0.030387327246311692  0.9281849968935003  0.3703364831464918  1.0000
  C   C57       1.0  0.55391381057026  0.7062581036555682  0.9926121532126587  1.0000
  C   C58       1.0  0.9460861894592457  0.20625810472451772  0.5073878467853797  1.0000
  C   C59       1.0  0.44608618985421494  0.29374189563731473  0.007387846793841497  1.0000
  C   C60       1.0  0.05391381036048514  0.7937418959991472  0.4926121529483074  1.0000
  C   C61       1.0  0.5177427738310122  0.9834056107134748  0.7742205364303305  1.0000
  C   C62       1.0  0.9822572261984938  0.48340561178242436  0.7257794635677077  1.0000
  C   C63       1.0  0.48225722598379356  0.016594388579408103  0.22577946382555888  1.0000
  C   C64       1.0  0.017742774225981424  0.5165943889412405  0.27422053643879235  1.0000
  C   C65       1.0  0.44715531867602826  0.984221146442702  0.7785592614256149  1.0000
  C   C66       1.0  0.052844681466856815  0.48422114751165146  0.7214407388085855  1.0000
  C   C67       1.0  0.5528446817435217  0.01577885285018096  0.22144073910308756  1.0000
  C   C68       1.0  0.9471553183528741  0.5157788532120134  0.2785592609251017  1.0000
  C   C69       1.0  0.4078324931626063  0.9220279970935464  0.6336196325251365  1.0000
  C   C70       1.0  0.09216750698520393  0.422027996731714  0.8663803671868615  1.0000
  C   C71       1.0  0.5921675066571247  0.07797200363011844  0.36638036720855055  1.0000
  C   C72       1.0  0.9078324934392712  0.5779720039919509  0.1336196328196386  1.0000
  C   C73       1.0  0.3679551205780698  0.8806547161821688  0.553372737923027  1.0000
  C   C74       1.0  0.13204487956481523  0.3806547158203364  0.9466272623111732  1.0000
  C   C75       1.0  0.6320448792367359  0.1193452845414961  0.44662726233286243  1.0000
  C   C76       1.0  0.8679551208596599  0.6193452849033286  0.053372737695326716  1.0000
  C   C77       1.0  0.3385097739524262  0.8065403426484457  0.41121810297455746  1.0000
  C   C78       1.0  0.16149022625734877  0.3065403422866132  0.08878189728979381  1.0000
  C   C79       1.0  0.6614902258623796  0.19345965664443726  0.588781897281332  1.0000
  C   C80       1.0  0.8385097741671264  0.6934596570062697  0.9112181027167063  1.0000
  C   C81       1.0  0.2656437033757619  0.8158994526138061  0.41068398196693345  1.0000
  C   C82       1.0  0.2343562968340131  0.31589945225197363  0.08931601829741777  1.0000
  C   C83       1.0  0.7343562964439689  0.18410054810985885  0.5893160177667536  1.0000
  C   C84       1.0  0.7656437035855369  0.6841005470409093  0.9106839822312847  1.0000
  N   N1        1.0  0.247179378391225  0.49582366214231804  0.6739682845751735  1.0000
  N   N2        1.0  0.2528206211469159  0.9958236625041506  0.8260317153862139  1.0000
  N   N3        1.0  0.7528206214235807  0.5041763371505649  0.326031715680716  1.0000
  N   N4        1.0  0.747179378672815  0.00417633678873243  0.17396828434747322  1.0000
  N   N5        1.0  0.17132386186065818  0.2775047733253661  0.5162299202850585  1.0000
  N   N6        1.0  0.32867613828222686  0.7775047736871986  0.9837700799491418  1.0000
  N   N7        1.0  0.8286761379541475  0.7224952273982989  0.4837700799708309  1.0000
  N   N8        1.0  0.6713238621422482  0.22249522703646638  0.01622992005735827  1.0000
  N   N9        1.0  0.2524536739594441  0.26658924152204966  0.30942471734551275  1.0000
  N   N10       1.0  0.2475463256455866  0.7665892418838821  0.19057528264602544  1.0000
  N   N11       1.0  0.7475463258602867  0.7334107577708332  0.6905752823881743  1.0000
  N   N12       1.0  0.752453674169219  0.23341075740900077  0.8094247176098641  1.0000
  O   O1        1.0  0.5223728859151626  0.39920245807477456  0.5892550454985216  1.0000
  O   O2        1.0  0.9776271141143432  0.899202458436607  0.9107449544995169  1.0000
  O   O3        1.0  0.4776271145043874  0.6007975412181082  0.41074495503018094  1.0000
  O   O4        1.0  0.022372885705387584  0.10079754228705791  0.08925504523417033  1.0000
  O   O5        1.0  0.6031513568834103  0.5828179696530554  0.8889627336161197  1.0000
  O   O6        1.0  0.8968486431460956  0.08281796929122294  0.6110372663819188  1.0000
  O   O7        1.0  0.3968486429313955  0.4171820310706095  0.11103726663976995  1.0000
  O   O8        1.0  0.10315135727837953  0.91718203000166  0.3889627336245813  1.0000
  O   O9        1.0  0.49787292547122447  0.625751126310157  0.9171363350681259  1.0000
  O   O10       1.0  0.002127074671660566  0.12575112594832447  0.5828636651660747  1.0000
  O   O11       1.0  0.5021270749483255  0.37424887298272597  0.08286366546057673  1.0000
  O   O12       1.0  0.9978729251480704  0.8742488733445585  0.41713633456761257  1.0000
  O   O13       1.0  0.2041666205115972  0.5834366312087297  0.6119298007436195  1.0000
  O   O14       1.0  0.2958333796312878  0.08343663227767921  0.8880701994905811  1.0000
  O   O15       1.0  0.795833379912878  0.4165633680841533  0.38807019926288067  1.0000
  O   O16       1.0  0.7041666201835179  0.9165633684459856  0.11192980076530855  1.0000
  O   O17       1.0  0.22458902591882843  0.4454907355868086  0.7233937881380506  1.0000
  O   O18       1.0  0.27541097422898175  0.945490735948641  0.7766062115739475  1.0000
  O   O19       1.0  0.7754109745056466  0.5545092637060742  0.27660621186844964  1.0000
  O   O20       1.0  0.7245890255907491  0.054509263344241825  0.22339378815973962  1.0000
  O   O21       1.0  0.1006623718743891  0.31908817172856496  0.4676726619075102  1.0000
  O   O22       1.0  0.39933762833538583  0.8190881720903974  0.03232733835684097  1.0000
  O   O23       1.0  0.8993376279453419  0.6809118275643179  0.5323273378261768  1.0000
  O   O24       1.0  0.6006623720841642  0.18091182863326752  0.9676726621718617  1.0000
  O   O25       1.0  0.19014493876166313  0.19206110586248934  0.5795584954728827  1.0000
  O   O26       1.0  0.30985506077647773  0.6920611062243217  0.9204415044885048  1.0000
  O   O27       1.0  0.8098550610531426  0.8079388934303936  0.42044150478300685  1.0000
  O   O28       1.0  0.6901449390432532  0.30793889306856115  0.07955849524518241  1.0000
  O   O29       1.0  0.30670593032768034  0.2560009796413898  0.2879850057915442  1.0000
  O   O30       1.0  0.19329406928227555  0.7560009800032222  0.21201499367779172  1.0000
  O   O31       1.0  0.6932940694920504  0.7439990196514931  0.712014993942143  1.0000
  O   O32       1.0  0.8067059305374553  0.24399901928966067  0.7879850060558955  1.0000
  O   O33       1.0  0.17827071658356863  0.2527454984455116  0.2629302591628954  1.0000
  O   O34       1.0  0.32172928302146214  0.752745497376562  0.23706974082864285  1.0000
  O   O35       1.0  0.8217292832312371  0.7472545022781534  0.7370697410929942  1.0000
  O   O36       1.0  0.6782707167933436  0.24725450191632087  0.7629302594272466  1.0000
  S   S1        1.0  0.5122359624836454  0.9487579037719627  0.6824185739018664  1.0000
  S   S2        1.0  0.9877640375458605  0.44875790341013017  0.8175814260961719  1.0000
  S   S3        1.0  0.4877640373360855  0.051242096951702294  0.3175814258318207  1.0000
  S   S4        1.0  0.012235962268945322  0.5512420958827527  0.18241857415971757  1.0000
  S   S5        1.0  0.3598773082936216  0.9471651343478691  0.6924783047111606  1.0000
  S   S6        1.0  0.14012269184926346  0.4471651339860367  0.8075216955230399  1.0000
  S   S7        1.0  0.6401226915261092  0.052834866375795785  0.3075216950225266  1.0000
  S   S8        1.0  0.8598773079655423  0.5528348653068462  0.19247830473284963  1.0000
  S   S9        1.0  0.42177985467119733  0.842614562144693  0.5004688953817288  1.0000
  S   S10       1.0  0.07822014547168768  0.3426145617828604  0.9995311048524715  1.0000
  S   S11       1.0  0.5782201457532776  0.15738543857897197  0.49953110462477135  1.0000
  S   S12       1.0  0.921779854343118  0.6573854375100224  0.0004688954034178804  1.0000
  S   S13       1.0  0.2638521916996657  0.862845866957122  0.4985999782109795  1.0000
  S   S14       1.0  0.2361478079053651  0.36284586659528956  0.001400021780558767  1.0000
  S   S15       1.0  0.7361478081200652  0.13715413376654292  0.5014000215227076  1.0000
  S   S16       1.0  0.7638521919094406  0.6371541326975934  0.9985999784753307  1.0000
