data_image0
_chemical_formula_structural       H64C112Cl32I16
_chemical_formula_sum              "H64 C112 Cl32 I16"
_cell_length_a       18.822077505475313
_cell_length_b       10.117594821997654
_cell_length_c       17.873039036832054
_cell_angle_alpha    90.0
_cell_angle_beta     90.0
_cell_angle_gamma    90.0

_space_group_name_H-M_alt    "P 1"
_space_group_IT_number       1

loop_
  _space_group_symop_operation_xyz
  'x, y, z'

loop_
  _atom_site_type_symbol
  _atom_site_label
  _atom_site_symmetry_multiplicity
  _atom_site_fract_x
  _atom_site_fract_y
  _atom_site_fract_z
  _atom_site_occupancy
  H   H1        1.0  0.7192588594995336  0.4599087077378397  0.6581669880403863  1.0000
  H   H2        1.0  0.7807411405954097  0.04009129216343845  0.1581669879517627  1.0000
  H   H3        1.0  0.21925885964498282  0.04009129216343845  0.34183301157735896  1.0000
  H   H4        1.0  0.28074114074085893  0.4599087077378397  0.8418330116659826  1.0000
  H   H5        1.0  0.28074114074085893  0.5400912920647166  0.34183301157735896  1.0000
  H   H6        1.0  0.21925885964498282  0.959908707639118  0.8418330116659826  1.0000
  H   H7        1.0  0.7807411405954097  0.959908707639118  0.6581669880403863  1.0000
  H   H8        1.0  0.7192588594995336  0.5400912920647166  0.1581669879517627  1.0000
  H   H9        1.0  0.6320122242903067  0.08669676394758115  0.813678366059099  1.0000
  H   H10       1.0  0.8679877752733457  0.41330323595369706  0.3136783659704755  1.0000
  H   H11       1.0  0.13201222443575591  0.41330323595369706  0.1863216341181481  1.0000
  H   H12       1.0  0.3679877754187948  0.08669676394758115  0.6863216342067716  1.0000
  H   H13       1.0  0.3679877754187948  0.9133032358549753  0.1863216341181481  1.0000
  H   H14       1.0  0.13201222443575591  0.5866967638488593  0.6863216342067716  1.0000
  H   H15       1.0  0.8679877752733457  0.5866967638488593  0.813678366059099  1.0000
  H   H16       1.0  0.6320122242903067  0.9133032358549753  0.3136783659704755  1.0000
  H   H17       1.0  0.5917620500053683  0.44505539500453456  0.6904716441657466  1.0000
  H   H18       1.0  0.908237950089575  0.05494460489674359  0.19047164463662491  1.0000
  H   H19       1.0  0.09176205015081751  0.05494460489674359  0.30952835545199864  1.0000
  H   H20       1.0  0.40823795023502424  0.44505539500453456  0.8095283555406223  1.0000
  H   H21       1.0  0.40823795023502424  0.5549446047980218  0.30952835545199864  1.0000
  H   H22       1.0  0.09176205015081751  0.9450553949058128  0.8095283555406223  1.0000
  H   H23       1.0  0.908237950089575  0.9450553949058128  0.6904716441657466  1.0000
  H   H24       1.0  0.5917620500053683  0.5549446047980218  0.19047164463662491  1.0000
  H   H25       1.0  0.7593200939610669  0.09911817063672414  0.7802496386463322  1.0000
  H   H26       1.0  0.7406799061338762  0.40088182926455407  0.2802496385577086  1.0000
  H   H27       1.0  0.2593200941065162  0.40088182926455407  0.21975036153091496  1.0000
  H   H28       1.0  0.24067990627932556  0.09911817063672414  0.7197503610600366  1.0000
  H   H29       1.0  0.24067990627932556  0.9008818291658323  0.21975036153091496  1.0000
  H   H30       1.0  0.2593200941065162  0.5991181705380023  0.7197503610600366  1.0000
  H   H31       1.0  0.7406799061338762  0.5991181705380023  0.7802496386463322  1.0000
  H   H32       1.0  0.7593200939610669  0.9008818291658323  0.2802496385577086  1.0000
  H   H33       1.0  0.5562393267668999  0.40331578717977506  0.02122781745276424  1.0000
  H   H34       1.0  0.9437606733280434  0.09668421272150314  0.5212278175413878  1.0000
  H   H35       1.0  0.05623932691234918  0.09668421272150314  0.978772182724483  1.0000
  H   H36       1.0  0.4437606734734925  0.40331578717977506  0.47877218263585936  1.0000
  H   H37       1.0  0.4437606734734925  0.5966842126227813  0.978772182724483  1.0000
  H   H38       1.0  0.05623932691234918  0.9033157870810533  0.47877218263585936  1.0000
  H   H39       1.0  0.9437606733280434  0.9033157870810533  0.02122781745276424  1.0000
  H   H40       1.0  0.5562393267668999  0.5966842126227813  0.5212278175413878  1.0000
  H   H41       1.0  0.42340205791213753  0.06053007565281032  0.9856194049426968  1.0000
  H   H42       1.0  0.07659794194241322  0.43946992424846787  0.4856194054135751  1.0000
  H   H43       1.0  0.9234020577666883  0.43946992424846787  0.014380594675048443  1.0000
  H   H44       1.0  0.576597941796964  0.06053007565281032  0.514380594763672  1.0000
  H   H45       1.0  0.576597941796964  0.9394699241497461  0.014380594675048443  1.0000
  H   H46       1.0  0.9234020577666883  0.5605300755540885  0.514380594763672  1.0000
  H   H47       1.0  0.07659794194241322  0.5605300755540885  0.9856194049426968  1.0000
  H   H48       1.0  0.42340205791213753  0.9394699241497461  0.4856194054135751  1.0000
  H   H49       1.0  0.580513864466954  0.4134220309856335  0.8853616039997626  1.0000
  H   H50       1.0  0.9194861356279893  0.08657796891564463  0.38536160391113905  1.0000
  H   H51       1.0  0.08051386461240324  0.08657796891564463  0.11463839617748457  1.0000
  H   H52       1.0  0.4194861357734385  0.4134220309856335  0.6146383962661082  1.0000
  H   H53       1.0  0.4194861357734385  0.5865779688169228  0.11463839617748457  1.0000
  H   H54       1.0  0.08051386461240324  0.9134220308869118  0.6146383962661082  1.0000
  H   H55       1.0  0.9194861356279893  0.9134220308869118  0.8853616039997626  1.0000
  H   H56       1.0  0.580513864466954  0.5865779688169228  0.38536160391113905  1.0000
  H   H57       1.0  0.44497338604432113  0.07520606066825715  0.8498225986470062  1.0000
  H   H58       1.0  0.05502661381022961  0.42479393923302106  0.34982259855838255  1.0000
  H   H59       1.0  0.9449733864301628  0.42479393923302106  0.15017740153024106  1.0000
  H   H60       1.0  0.5550266136647805  0.07520606066825715  0.6501774016188646  1.0000
  H   H61       1.0  0.5550266136647805  0.9247939391342993  0.15017740153024106  1.0000
  H   H62       1.0  0.9449733864301628  0.5752060605695354  0.6501774016188646  1.0000
  H   H63       1.0  0.05502661381022961  0.5752060605695354  0.8498225986470062  1.0000
  H   H64       1.0  0.44497338604432113  0.9247939391342993  0.34982259855838255  1.0000
  C   C1        1.0  0.5267388983557176  0.2558322966612865  0.7757729920147709  1.0000
  C   C2        1.0  0.9732611012079346  0.24416770323999168  0.2757729919261472  1.0000
  C   C3        1.0  0.02673889850116684  0.24416770323999168  0.2242270081624764  1.0000
  C   C4        1.0  0.47326110135338395  0.2558322966612865  0.7242270082511  1.0000
  C   C5        1.0  0.47326110135338395  0.7441677041296471  0.2242270081624764  1.0000
  C   C6        1.0  0.02673889850116684  0.7558322965625647  0.7242270082511  1.0000
  C   C7        1.0  0.9732611012079346  0.7558322965625647  0.7757729920147709  1.0000
  C   C8        1.0  0.5267388983557176  0.7441677041296471  0.2757729919261472  1.0000
  C   C9        1.0  0.7471092378569445  0.28015824708034126  0.7167288536438265  1.0000
  C   C10       1.0  0.7528907622379988  0.21984175282093696  0.21672885355520297  1.0000
  C   C11       1.0  0.2471092380023937  0.21984175282093696  0.2832711465334206  1.0000
  C   C12       1.0  0.2528907618521571  0.28015824708034126  0.7832711466220442  1.0000
  C   C13       1.0  0.2528907618521571  0.7198417527222151  0.2832711465334206  1.0000
  C   C14       1.0  0.2471092380023937  0.7801582469816194  0.7832711466220442  1.0000
  C   C15       1.0  0.7528907622379988  0.7801582469816194  0.7167288536438265  1.0000
  C   C16       1.0  0.7471092378569445  0.7198417527222151  0.21672885355520297  1.0000
  C   C17       1.0  0.7001497101564086  0.37750124878452906  0.6915621878589502  1.0000
  C   C18       1.0  0.7998502899385346  0.1224987511167491  0.19156218777032666  1.0000
  C   C19       1.0  0.20014971030185788  0.1224987511167491  0.3084378123182969  1.0000
  C   C20       1.0  0.2998502895526929  0.37750124878452906  0.8084378124069206  1.0000
  C   C21       1.0  0.2998502895526929  0.6224987510180273  0.3084378123182969  1.0000
  C   C22       1.0  0.20014971030185788  0.8775012486858073  0.8084378124069206  1.0000
  C   C23       1.0  0.7998502899385346  0.8775012486858073  0.6915621878589502  1.0000
  C   C24       1.0  0.7001497101564086  0.6224987510180273  0.19156218777032666  1.0000
  C   C25       1.0  0.6026762261870486  0.2643136226591838  0.7540582819869909  1.0000
  C   C26       1.0  0.8973237739078946  0.2356863772420944  0.25405828245786916  1.0000
  C   C27       1.0  0.10267622580120687  0.2356863772420944  0.24594171763075445  1.0000
  C   C28       1.0  0.39732377405334385  0.2643136226591838  0.745941717719378  1.0000
  C   C29       1.0  0.39732377405334385  0.7356863771433726  0.24594171763075445  1.0000
  C   C30       1.0  0.10267622580120687  0.764313622560462  0.745941717719378  1.0000
  C   C31       1.0  0.8973237739078946  0.764313622560462  0.7540582819869909  1.0000
  C   C32       1.0  0.6026762261870486  0.7356863771433726  0.25405828245786916  1.0000
  C   C33       1.0  0.6509659742095822  0.16857388144183932  0.7794239810751945  1.0000
  C   C34       1.0  0.8490340258853611  0.33142611845943887  0.27942398098657095  1.0000
  C   C35       1.0  0.15096597435503142  0.33142611845943887  0.22057601910205266  1.0000
  C   C36       1.0  0.34903402549951934  0.16857388144183932  0.7205760191906763  1.0000
  C   C37       1.0  0.34903402549951934  0.8314261183607171  0.22057601910205266  1.0000
  C   C38       1.0  0.15096597435503142  0.6685738813431176  0.7205760191906763  1.0000
  C   C39       1.0  0.8490340258853611  0.6685738813431176  0.7794239810751945  1.0000
  C   C40       1.0  0.6509659742095822  0.8314261183607171  0.27942398098657095  1.0000
  C   C41       1.0  0.6283285384708305  0.3687861705914106  0.7100082304888911  1.0000
  C   C42       1.0  0.8716714616241126  0.13121382930986752  0.21000823040026742  1.0000
  C   C43       1.0  0.1283285386162798  0.13121382930986752  0.28999176968835616  1.0000
  C   C44       1.0  0.37167146123827094  0.3687861705914106  0.7899917697769798  1.0000
  C   C45       1.0  0.37167146123827094  0.6312138292111458  0.28999176968835616  1.0000
  C   C46       1.0  0.1283285386162798  0.8687861704926888  0.7899917697769798  1.0000
  C   C47       1.0  0.8716714616241126  0.8687861704926888  0.7100082304888911  1.0000
  C   C48       1.0  0.6283285384708305  0.6312138292111458  0.21000823040026742  1.0000
  C   C49       1.0  0.7227896684647325  0.1751227708929112  0.7606884129767906  1.0000
  C   C50       1.0  0.7772103316302108  0.32487722900836696  0.2606884128881669  1.0000
  C   C51       1.0  0.22278966861018168  0.32487722900836696  0.23931158720045667  1.0000
  C   C52       1.0  0.27721033177566007  0.1751227708929112  0.7393115872890803  1.0000
  C   C53       1.0  0.27721033177566007  0.8248772289096451  0.23931158720045667  1.0000
  C   C54       1.0  0.22278966861018168  0.6751227707941894  0.7393115872890803  1.0000
  C   C55       1.0  0.7772103316302108  0.6751227707941894  0.7606884129767906  1.0000
  C   C56       1.0  0.7227896684647325  0.8248772289096451  0.2606884128881669  1.0000
  C   C57       1.0  0.48722449885419356  0.2323634797954696  0.011666637082272007  1.0000
  C   C58       1.0  0.012775501000357167  0.2676365201058086  0.5116666371708956  1.0000
  C   C59       1.0  0.9872244987087443  0.2676365201058086  0.9883333630949752  1.0000
  C   C60       1.0  0.5127755013861989  0.2323634797954696  0.48833336300635155  1.0000
  C   C61       1.0  0.5127755013861989  0.7676365200070867  0.9883333630949752  1.0000
  C   C62       1.0  0.9872244987087443  0.7323634796967479  0.48833336300635155  1.0000
  C   C63       1.0  0.012775501000357167  0.7323634796967479  0.011666637082272007  1.0000
  C   C64       1.0  0.48722449885419356  0.7676365200070867  0.5116666371708956  1.0000
  C   C65       1.0  0.5321689525019865  0.33095270752687356  0.9838316183254263  1.0000
  C   C66       1.0  0.9678310470616658  0.16904729237440463  0.48383161823680276  1.0000
  C   C67       1.0  0.0321689526474357  0.16904729237440463  0.016168381851820793  1.0000
  C   C68       1.0  0.46783104720711505  0.33095270752687356  0.5161683819404445  1.0000
  C   C69       1.0  0.46783104720711505  0.6690472922756828  0.016168381851820793  1.0000
  C   C70       1.0  0.0321689526474357  0.8309527074281516  0.5161683819404445  1.0000
  C   C71       1.0  0.9678310470616658  0.8309527074281516  0.9838316183254263  1.0000
  C   C72       1.0  0.5321689525019865  0.6690472922756828  0.48383161823680276  1.0000
  C   C73       1.0  0.4568793183163996  0.1390653564166148  0.9637161673795013  1.0000
  C   C74       1.0  0.04312068153815118  0.36093464348466336  0.4637161672908777  1.0000
  C   C75       1.0  0.9568793187022413  0.36093464348466336  0.03628383279774592  1.0000
  C   C76       1.0  0.543120681392702  0.1390653564166148  0.5362838328863695  1.0000
  C   C77       1.0  0.543120681392702  0.8609346433859415  0.03628383279774592  1.0000
  C   C78       1.0  0.9568793187022413  0.639065356317893  0.5362838328863695  1.0000
  C   C79       1.0  0.04312068153815118  0.639065356317893  0.9637161673795013  1.0000
  C   C80       1.0  0.4568793183163996  0.8609346433859415  0.4637161672908777  1.0000
  C   C81       1.0  0.5455745890437869  0.33638062305088706  0.9070214196137848  1.0000
  C   C82       1.0  0.9544254110511563  0.1636193778387683  0.407021419525161  1.0000
  C   C83       1.0  0.04557458865794516  0.1636193778387683  0.09297858056346253  1.0000
  C   C84       1.0  0.45442541119660557  0.33638062305088706  0.5929785806520861  1.0000
  C   C85       1.0  0.45442541119660557  0.6636193777400465  0.09297858056346253  1.0000
  C   C86       1.0  0.04557458865794516  0.8363806229521652  0.5929785806520861  1.0000
  C   C87       1.0  0.9544254110511563  0.8363806229521652  0.9070214196137848  1.0000
  C   C88       1.0  0.5455745890437869  0.6636193777400465  0.407021419525161  1.0000
  C   C89       1.0  0.4694961784866395  0.14747155784060176  0.8870363555592661  1.0000
  C   C90       1.0  0.030503821367911275  0.35252844206067646  0.38703635547064247  1.0000
  C   C91       1.0  0.9694961788724812  0.35252844206067646  0.11296364461798113  1.0000
  C   C92       1.0  0.530503821222462  0.14747155784060176  0.6129636447066047  1.0000
  C   C93       1.0  0.530503821222462  0.8525284429503317  0.11296364461798113  1.0000
  C   C94       1.0  0.9694961788724812  0.6474715577418799  0.6129636447066047  1.0000
  C   C95       1.0  0.030503821367911275  0.6474715577418799  0.8870363555592661  1.0000
  C   C96       1.0  0.4694961784866395  0.8525284429503317  0.38703635547064247  1.0000
  C   C97       1.0  0.5132694840508275  0.24684234879321787  0.8573351856068006  1.0000
  C   C98       1.0  0.9867305160441157  0.25315765209643754  0.3573351855181769  1.0000
  C   C99       1.0  0.013269483664985728  0.25315765209643754  0.1426648145704467  1.0000
  C   C100      1.0  0.486730516189565  0.24684234879321787  0.6426648146590703  1.0000
  C   C101      1.0  0.486730516189565  0.7531576519977157  0.1426648145704467  1.0000
  C   C102      1.0  0.013269483664985728  0.7468423486944961  0.6426648146590703  1.0000
  C   C103      1.0  0.9867305160441157  0.7468423486944961  0.8573351856068006  1.0000
  C   C104      1.0  0.5132694840508275  0.7531576519977157  0.3573351855181769  1.0000
  C   C105      1.0  0.7568206833627249  0.4949380508016118  0.9753169835346454  1.0000
  C   C106      1.0  0.7431793167322184  0.005061949099666355  0.4753169834460217  1.0000
  C   C107      1.0  0.2568206829768832  0.005061949099666355  0.024683016083100015  1.0000
  C   C108      1.0  0.24317931687766758  0.4949380508016118  0.5246830161717236  1.0000
  C   C109      1.0  0.24317931687766758  0.5050619490009446  0.024683016083100015  1.0000
  C   C110      1.0  0.2568206829768832  0.9949380507028899  0.5246830161717236  1.0000
  C   C111      1.0  0.7431793167322184  0.9949380507028899  0.9753169835346454  1.0000
  C   C112      1.0  0.7568206833627249  0.5050619490009446  0.4753169834460217  1.0000
  Cl  Cl1       1.0  0.8272132598259012  0.611166195997074  0.9702833851737509  1.0000
  Cl  Cl2       1.0  0.6727867402690422  0.8888338037067605  0.47028338508512724  1.0000
  Cl  Cl3       1.0  0.32721325997135037  0.8888338037067605  0.029716615003496386  1.0000
  Cl  Cl4       1.0  0.17278673988320037  0.611166195997074  0.52971661509212  1.0000
  Cl  Cl5       1.0  0.17278673988320037  0.3888338038054823  0.029716615003496386  1.0000
  Cl  Cl6       1.0  0.32721325997135037  0.11116619609579585  0.52971661509212  1.0000
  Cl  Cl7       1.0  0.6727867402690422  0.11116619609579585  0.9702833851737509  1.0000
  Cl  Cl8       1.0  0.8272132598259012  0.3888338038054823  0.47028338508512724  1.0000
  Cl  Cl9       1.0  0.7708053707556777  0.3887297484426691  0.05285578955281263  1.0000
  Cl  Cl10      1.0  0.7291946293392655  0.11127025145860905  0.5528557896414362  1.0000
  Cl  Cl11      1.0  0.2708053709011269  0.11127025145860905  0.9471442106244344  1.0000
  Cl  Cl12      1.0  0.2291946294847148  0.3887297484426691  0.447144210535811  1.0000
  Cl  Cl13      1.0  0.2291946294847148  0.6112702513598872  0.9471442106244344  1.0000
  Cl  Cl14      1.0  0.2708053709011269  0.8887297483439474  0.447144210535811  1.0000
  Cl  Cl15      1.0  0.7291946293392655  0.8887297483439474  0.05285578955281263  1.0000
  Cl  Cl16      1.0  0.7708053707556777  0.6112702513598872  0.5528557896414362  1.0000
  Cl  Cl17      1.0  0.6748510394936467  0.5799353624285074  0.9862264897242855  1.0000
  Cl  Cl18      1.0  0.8251489606012966  0.9200646382637043  0.4862264896356618  1.0000
  Cl  Cl19      1.0  0.17485103963909593  0.9200646382637043  0.013773510452961766  1.0000
  Cl  Cl20      1.0  0.32514896021545486  0.5799353624285074  0.5137735105415854  1.0000
  Cl  Cl21      1.0  0.32514896021545486  0.42006463836242613  0.013773510452961766  1.0000
  Cl  Cl22      1.0  0.17485103963909593  0.07993536252722924  0.5137735105415854  1.0000
  Cl  Cl23      1.0  0.8251489606012966  0.07993536252722924  0.9862264897242855  1.0000
  Cl  Cl24      1.0  0.6748510394936467  0.42006463836242613  0.4862264896356618  1.0000
  Cl  Cl25      1.0  0.7541325544893165  0.3999356310654341  0.8918747336225485  1.0000
  Cl  Cl26      1.0  0.7458674456056268  0.10006436883584412  0.391874733533925  1.0000
  Cl  Cl27      1.0  0.2541325546347657  0.10006436883584412  0.10812526599519669  1.0000
  Cl  Cl28      1.0  0.245867445751076  0.3999356310654341  0.6081252660838203  1.0000
  Cl  Cl29      1.0  0.245867445751076  0.6000643697254995  0.10812526599519669  1.0000
  Cl  Cl30      1.0  0.2541325546347657  0.8999356309667124  0.6081252660838203  1.0000
  Cl  Cl31      1.0  0.7458674456056268  0.8999356309667124  0.8918747336225485  1.0000
  Cl  Cl32      1.0  0.7541325544893165  0.6000643697254995  0.391874733533925  1.0000
  I   I1        1.0  0.8561680550572703  0.2898393483423762  0.6874788442345335  1.0000
  I   I2        1.0  0.6438319450376728  0.21016065155890198  0.1874788441459099  1.0000
  I   I3        1.0  0.35616805520271966  0.21016065155890198  0.3125211553832118  1.0000
  I   I4        1.0  0.14383194518312206  0.2898393483423762  0.8125211554718353  1.0000
  I   I5        1.0  0.14383194518312206  0.7101606514601801  0.3125211553832118  1.0000
  I   I6        1.0  0.35616805520271966  0.7898393482436544  0.8125211554718353  1.0000
  I   I7        1.0  0.6438319450376728  0.7898393482436544  0.6874788442345335  1.0000
  I   I8        1.0  0.8561680550572703  0.7101606514601801  0.1874788441459099  1.0000
  I   I9        1.0  0.46103557418014485  0.22582814692601746  0.1269400136890284  1.0000
  I   I10       1.0  0.038964425674405896  0.2741718529752607  0.6269400132181501  1.0000
  I   I11       1.0  0.9610355745659866  0.2741718529752607  0.8730599864882188  1.0000
  I   I12       1.0  0.5389644255289566  0.22582814692601746  0.37305998639959514  1.0000
  I   I13       1.0  0.5389644255289566  0.7741718528765389  0.8730599864882188  1.0000
  I   I14       1.0  0.9610355745659866  0.7258281468272957  0.37305998639959514  1.0000
  I   I15       1.0  0.038964425674405896  0.7258281468272957  0.1269400136890284  1.0000
  I   I16       1.0  0.46103557418014485  0.7741718528765389  0.6269400132181501  1.0000
