data_image0
_chemical_formula_structural       H26C38N8O4I2
_chemical_formula_sum              "H26 C38 N8 O4 I2"
_cell_length_a       6.845220577837491
_cell_length_b       7.367823411978691
_cell_length_c       16.887921514017016
_cell_angle_alpha    80.93289784116665
_cell_angle_beta     85.99924724180937
_cell_angle_gamma    88.41001138589249

_space_group_name_H-M_alt    "P 1"
_space_group_IT_number       1

loop_
  _space_group_symop_operation_xyz
  'x, y, z'

loop_
  _atom_site_type_symbol
  _atom_site_label
  _atom_site_symmetry_multiplicity
  _atom_site_fract_x
  _atom_site_fract_y
  _atom_site_fract_z
  _atom_site_occupancy
  H   H1        1.0  0.11092138467632616  0.6464215961876278  0.48984085069926203  1.0000
  H   H2        1.0  0.8890786159809307  0.3535784034798979  0.5101591496395433  1.0000
  H   H3        1.0  0.3204992322973275  0.7315128743219237  0.5923346723315062  1.0000
  H   H4        1.0  0.6795007683599295  0.2684871253456019  0.4076653280072991  1.0000
  H   H5        1.0  0.8333301199915356  0.027030825044848453  0.690591277645889  1.0000
  H   H6        1.0  0.16666988063082455  0.9729691759817334  0.30940872268923575  1.0000
  H   H7        1.0  0.6224844518394267  0.94171706627065  0.589302830468475  1.0000
  H   H8        1.0  0.37751554891471445  0.058282933603130256  0.41069716926938943  1.0000
  H   H9        1.0  0.9673003150322695  0.6332889719159454  0.30252073478259167  1.0000
  H   H10       1.0  0.03269968562498731  0.3667110277515803  0.6974792655562136  1.0000
  H   H11       1.0  0.7314369066508098  0.5450560119039745  0.20879746114921752  1.0000
  H   H12       1.0  0.2685630941033315  0.4549439879698057  0.791202538588647  1.0000
  H   H13       1.0  0.20802030729820267  0.26350567310260375  0.09666912978095885  1.0000
  H   H14       1.0  0.7919796933590542  0.7364943265649219  0.9033308705578464  1.0000
  H   H15       1.0  0.4273490884882003  0.3620965057733404  0.19498368667310728  1.0000
  H   H16       1.0  0.5726509121690567  0.637903493894185  0.805016313665698  1.0000
  H   H17       1.0  0.4927568109193126  0.33921713543918824  0.043124851096388014  1.0000
  H   H18       1.0  0.5072431898348286  0.6607828644345919  0.9568751486414764  1.0000
  H   H19       1.0  0.2631872183225837  0.2471462957456506  0.9485230221902482  1.0000
  H   H20       1.0  0.7368127808736441  0.7528537039265248  0.05147697814870696  1.0000
  H   H21       1.0  0.3956250124928799  0.09235672327465626  0.833772651326134  1.0000
  H   H22       1.0  0.6043749868002324  0.9076432766037738  0.1662273484118804  1.0000
  H   H23       1.0  0.7540484554210728  0.03283359229102971  0.8150220670682913  1.0000
  H   H24       1.0  0.24595154520128737  0.967166408735552  0.1849779332668335  1.0000
  H   H25       1.0  0.9794800914365602  0.11899419182506477  0.9118531099388392  1.0000
  H   H26       1.0  0.02051990775966755  0.8810058078471107  0.08814689040011599  1.0000
  C   C1        1.0  0.8518326355902115  0.7876217132164047  0.532550447889708  1.0000
  C   C2        1.0  0.1481673637029007  0.21237828666202538  0.4674495518483063  1.0000
  C   C3        1.0  0.05007258728835295  0.728621859967144  0.5341098345353944  1.0000
  C   C4        1.0  0.9499274119078749  0.2713781397050315  0.4658901658035608  1.0000
  C   C5        1.0  0.16786387430810104  0.7762100497528125  0.5908365302153662  1.0000
  C   C6        1.0  0.8321361264460404  0.2237899501209677  0.40916346952249816  1.0000
  C   C7        1.0  0.0871407734455931  0.8832172190892796  0.6467116256910566  1.0000
  C   C8        1.0  0.9128592273085482  0.11678278078450079  0.35328837404680785  1.0000
  C   C9        1.0  0.891676823780824  0.94304839651768  0.6467572370785181  1.0000
  C   C10       1.0  0.10832317697331731  0.05695160335610037  0.3532427626593463  1.0000
  C   C11       1.0  0.7748312297251124  0.8956148218472783  0.5898272345774237  1.0000
  C   C12       1.0  0.22516876956799975  0.10438517803115199  0.4101727651605906  1.0000
  C   C13       1.0  0.7310044956268992  0.7399041422985277  0.47474623990623993  1.0000
  C   C14       1.0  0.2689955051272421  0.2600958575752524  0.5252537598316245  1.0000
  C   C15       1.0  0.6220028803133786  0.698217989253619  0.42614348601820395  1.0000
  C   C16       1.0  0.3779971203438785  0.30178201041390657  0.5738565143206014  1.0000
  C   C17       1.0  0.01616355102734242  0.5517581189821528  0.2559606707901742  1.0000
  C   C18       1.0  0.983836449726799  0.4482418808916273  0.7440393289476901  1.0000
  C   C19       1.0  0.8849018910645607  0.5029386557131036  0.2038847991374683  1.0000
  C   C20       1.0  0.11509810813166711  0.4970613439590719  0.7961152012014868  1.0000
  C   C21       1.0  0.9532880026156101  0.39886590705124503  0.1448206513760343  1.0000
  C   C22       1.0  0.04671199667750204  0.6011340928271851  0.85517934836198  1.0000
  C   C23       1.0  0.15207701985295552  0.3468438890247957  0.14108304250012427  1.0000
  C   C24       1.0  0.8479229793432721  0.6531561106473798  0.8589169578388309  1.0000
  C   C25       1.0  0.27233087198473643  0.4012027449076032  0.19554198693618252  1.0000
  C   C26       1.0  0.7276691271765944  0.5987972561236284  0.8044580133990922  1.0000
  C   C27       1.0  0.748247150620299  0.2330764930600438  0.9835112150003893  1.0000
  C   C28       1.0  0.2517528486728131  0.7669235068183863  0.016488784737624954  1.0000
  C   C29       1.0  0.5456807302571683  0.26950260143274224  0.9935124027586679  1.0000
  C   C30       1.0  0.4543192689390595  0.7304973982394334  0.006487597580287083  1.0000
  C   C31       1.0  0.41993377934662146  0.21907813960134642  0.9401376428472157  1.0000
  C   C32       1.0  0.5800662214075198  0.7809218602724337  0.059862356890648775  1.0000
  C   C33       1.0  0.4941833924120145  0.13244381199906288  0.8758199734719939  1.0000
  C   C34       1.0  0.5058166067842134  0.8675561876731126  0.1241800268669613  1.0000
  C   C35       1.0  0.6953672579601595  0.09799738533616907  0.8653783805042469  1.0000
  C   C36       1.0  0.30463274279398167  0.9020026145376112  0.13462161923361757  1.0000
  C   C37       1.0  0.8226987276203576  0.14684066804597298  0.9190155453341582  1.0000
  C   C38       1.0  0.17730127167275453  0.8531593318324571  0.08098445440385615  1.0000
  N   N1        1.0  0.20923397678673805  0.9339904900995093  0.7065515016227555  1.0000
  N   N2        1.0  0.7907660224094897  0.06600950957266623  0.29344849871619955  1.0000
  N   N3        1.0  0.20619320756238657  0.5024415094839854  0.2520009380647915  1.0000
  N   N4        1.0  0.7938067916338414  0.49755849018819015  0.7479990622741636  1.0000
  N   N5        1.0  0.8133543185445593  0.35044875759378824  0.09431970441001711  1.0000
  N   N6        1.0  0.1866456821746849  0.6495512436390483  0.9056802953241668  1.0000
  N   N7        1.0  0.8863587651440565  0.2815535274690233  0.034285536855847495  1.0000
  N   N8        1.0  0.11364123411415873  0.718446473768463  0.9657144628784862  1.0000
  O   O1        1.0  0.1345343195908474  0.030977529039594675  0.7553084007110255  1.0000
  O   O2        1.0  0.865465681163294  0.9690224708341855  0.24469159902683896  1.0000
  O   O3        1.0  0.3826657903933311  0.8783441295723364  0.7068824979120906  1.0000
  O   O4        1.0  0.617334210263926  0.12165587009518938  0.29311750242671475  1.0000
  I   I1        1.0  0.44061617310431483  0.6157141887715443  0.3487462153895579  1.0000
  I   I2        1.0  0.5593838276498264  0.3842858111022358  0.6512537843483065  1.0000
