data_image0
_chemical_formula_structural       H136C124N8O12Cl8
_chemical_formula_sum              "H136 C124 N8 O12 Cl8"
_cell_length_a       9.388996096984751
_cell_length_b       18.32015414935083
_cell_length_c       16.217738181142508
_cell_angle_alpha    90.0
_cell_angle_beta     100.08349656736728
_cell_angle_gamma    90.0

_space_group_name_H-M_alt    "P 1"
_space_group_IT_number       1

loop_
  _space_group_symop_operation_xyz
  'x, y, z'

loop_
  _atom_site_type_symbol
  _atom_site_label
  _atom_site_symmetry_multiplicity
  _atom_site_fract_x
  _atom_site_fract_y
  _atom_site_fract_z
  _atom_site_occupancy
  H   H1        1.0  0.8869110350422326  0.13711884788311202  0.012475932141189696  1.0000
  H   H2        1.0  0.11308896495025011  0.6371188476279059  0.48752406772862666  1.0000
  H   H3        1.0  0.11308896531317628  0.8628811521523228  0.9875240679365183  1.0000
  H   H4        1.0  0.8869110341506526  0.36288115240752883  0.5124759317228179  1.0000
  H   H5        1.0  0.04404421320937587  0.09389502053185256  0.9875441395528437  1.0000
  H   H6        1.0  0.9559557873195237  0.5938950202766464  0.512455860106473  1.0000
  H   H7        1.0  0.955955787146033  0.9061049795035822  0.012455860524864222  1.0000
  H   H8        1.0  0.044044212846449715  0.4061049797587883  0.48754413934495217  1.0000
  H   H9        1.0  0.044754743368838536  0.1899471517341631  0.007334053947151363  1.0000
  H   H10       1.0  0.9552452566236442  0.689947152024804  0.492665945922665  1.0000
  H   H11       1.0  0.9552452569865704  0.8100528483012716  0.9926659461305566  1.0000
  H   H12       1.0  0.04475474373176469  0.31005284801063077  0.507334054155043  1.0000
  H   H13       1.0  0.2815389727868938  0.1251635123431127  0.19788898534437174  1.0000
  H   H14       1.0  0.718461027205589  0.6251635126337536  0.3021110145254447  1.0000
  H   H15       1.0  0.718461027568515  0.8748364876923219  0.8021110147333361  1.0000
  H   H16       1.0  0.28153897314981996  0.3748364874016812  0.6978889855522633  1.0000
  H   H17       1.0  0.26487182558609457  0.18215882479996773  0.10690232527510247  1.0000
  H   H18       1.0  0.7351281744063882  0.6821588245447616  0.3930976745947139  1.0000
  H   H19       1.0  0.7351281747693142  0.817841175235467  0.8930976748026055  1.0000
  H   H20       1.0  0.2648718259490207  0.3178411754906731  0.606902325482994  1.0000
  H   H21       1.0  0.2755055342102272  0.08543605677332483  0.09716253445162214  1.0000
  H   H22       1.0  0.7244944657822555  0.5854360570639657  0.4028374654181942  1.0000
  H   H23       1.0  0.7244944650801111  0.9145639432621098  0.9028374656261051  1.0000
  H   H24       1.0  0.27550553438371794  0.41456394297146903  0.597162534033231  1.0000
  H   H25       1.0  0.7739230096487282  0.8229637838792008  0.2794817131947372  1.0000
  H   H26       1.0  0.22607699053318991  0.3229637835885599  0.22051828730136178  1.0000
  H   H27       1.0  0.22607699070668064  0.17703621615623397  0.7205182868829707  1.0000
  H   H28       1.0  0.773923009822219  0.6770362164468748  0.7794817127763461  1.0000
  H   H29       1.0  0.5694289317545308  0.8810055192997337  0.030295471218540183  1.0000
  H   H30       1.0  0.43057106823795194  0.38100551955493983  0.4697045286512762  1.0000
  H   H31       1.0  0.430571068600878  0.118994480735701  0.9697045288591678  1.0000
  H   H32       1.0  0.5694289308629509  0.6189944804804949  0.5302954708001684  1.0000
  H   H33       1.0  0.018663927174563093  0.984616947158121  0.31071974861850277  1.0000
  H   H34       1.0  0.9813360728179196  0.48461694686748025  0.18928025125131362  1.0000
  H   H35       1.0  0.9813360731808458  0.015383052877313601  0.6892802514592051  1.0000
  H   H36       1.0  0.018663926472418428  0.5153830531679544  0.8107197488264136  1.0000
  H   H37       1.0  0.020509667248806276  0.8881373397492156  0.3218337403228686  1.0000
  H   H38       1.0  0.9794903327436765  0.38813733945857476  0.17816625954694776  1.0000
  H   H39       1.0  0.9794903331066026  0.11186266028621913  0.6781662597548394  1.0000
  H   H40       1.0  0.020509666546661687  0.61186266057686  0.8218337405307795  1.0000
  H   H41       1.0  0.8986958550197525  0.9402526637916082  0.36876021267625186  1.0000
  H   H42       1.0  0.10130414497273041  0.4402526640468142  0.13123978719356447  1.0000
  H   H43       1.0  0.10130414427058579  0.05974733624382665  0.6312397874014753  1.0000
  H   H44       1.0  0.8986958551932431  0.5597473359886206  0.8687602122578608  1.0000
  H   H45       1.0  0.5846646534482999  0.7471534228594375  0.2096584069453322  1.0000
  H   H46       1.0  0.4153353465441829  0.24715342311464364  0.2903415929244842  1.0000
  H   H47       1.0  0.41533534690710905  0.25284657663015025  0.7903415931323757  1.0000
  H   H48       1.0  0.5846646536217907  0.752846576920791  0.7096584065269411  1.0000
  H   H49       1.0  0.6321567785591883  0.7332507549056843  0.10985152604958522  1.0000
  H   H50       1.0  0.3678432216227299  0.2332507546150434  0.39014847444651374  1.0000
  H   H51       1.0  0.3678432217962207  0.26674924512975046  0.8901484740281227  1.0000
  H   H52       1.0  0.6321567776676081  0.7667492448745444  0.6098515256312135  1.0000
  H   H53       1.0  0.46809571258041716  0.778281838884267  0.11823635804642299  1.0000
  H   H54       1.0  0.5319042874120656  0.2782818391394732  0.3817636418233934  1.0000
  H   H55       1.0  0.531904286709921  0.2217181606053207  0.8817636420313042  1.0000
  H   H56       1.0  0.46809571275390793  0.7217181608959615  0.618236357628032  1.0000
  H   H57       1.0  0.6091661700313465  0.9933237609054089  0.9718834440294798  1.0000
  H   H58       1.0  0.39083383049755316  0.493323761160615  0.5281165556298371  1.0000
  H   H59       1.0  0.39083383013462697  0.006676239130025771  0.02811655542194553  1.0000
  H   H60       1.0  0.6091661698578558  0.5066762388748196  0.47188344444787084  1.0000
  H   H61       1.0  0.7914118366401391  0.02102203108447354  0.9956383439162585  1.0000
  H   H62       1.0  0.20858816388876045  0.5210220313751144  0.5043616557430582  1.0000
  H   H63       1.0  0.2085881637152697  0.9789779689509612  0.004361656161449274  1.0000
  H   H64       1.0  0.7914118364666485  0.47897796866032033  0.4956383443346497  1.0000
  H   H65       1.0  0.6579833962696144  0.06687600115217446  0.04160926430679279  1.0000
  H   H66       1.0  0.34201660391230376  0.5668760014428154  0.4583907361893062  1.0000
  H   H67       1.0  0.34201660302072373  0.9331239983374133  0.9583907357709345  1.0000
  H   H68       1.0  0.6579833964431052  0.4331239985926194  0.5416092638884018  1.0000
  H   H69       1.0  0.5277258969901764  0.350371216730589  0.1255450093221736  1.0000
  H   H70       1.0  0.4722741030023065  0.8503712170212299  0.37445499054764275  1.0000
  H   H71       1.0  0.47227410336523246  0.6496287833048456  0.8744549907555342  1.0000
  H   H72       1.0  0.5277258973531025  0.14962878301420485  0.6255450095300651  1.0000
  H   H73       1.0  0.8132907171802256  0.36949270976739373  0.3621356601738279  1.0000
  H   H74       1.0  0.18670928281225718  0.8694927095121876  0.13786433969598852  1.0000
  H   H75       1.0  0.1867092831751833  0.6305072902680411  0.63786433990388  1.0000
  H   H76       1.0  0.8132907164780809  0.13050729052324714  0.8621356603817388  1.0000
  H   H77       1.0  0.5521533574350346  0.2598855665288553  0.03195480618557766  1.0000
  H   H78       1.0  0.4478466414923774  0.7598855668194961  0.468045193684258  1.0000
  H   H79       1.0  0.4478466418553036  0.7401144335065795  0.9680451938921496  1.0000
  H   H80       1.0  0.5521533577979607  0.24011443321593856  0.5319548063934691  1.0000
  H   H81       1.0  0.6072332178124181  0.1731660795066189  0.07459331832422957  1.0000
  H   H82       1.0  0.3927667821800646  0.6731660792514128  0.42540668154558686  1.0000
  H   H83       1.0  0.39276678147792  0.8268339205288159  0.9254066817534977  1.0000
  H   H84       1.0  0.6072332181753444  0.32683392078402196  0.574593318532121  1.0000
  H   H85       1.0  0.7321610038245157  0.230305592715196  0.03395881977122906  1.0000
  H   H86       1.0  0.2678389961679671  0.7303055930058368  0.4660411800985873  1.0000
  H   H87       1.0  0.2678389965308932  0.7696944073202387  0.9660411803064789  1.0000
  H   H88       1.0  0.7321610031223711  0.2696944070295979  0.5339588199791399  1.0000
  H   H89       1.0  0.5964822723989062  0.45027657697368806  0.32774682967039537  1.0000
  H   H90       1.0  0.4035177275935767  0.950276576718482  0.17225317019942105  1.0000
  H   H91       1.0  0.4035177279565028  0.5497234230617467  0.6722531704073126  1.0000
  H   H92       1.0  0.5964822727618323  0.049723423316952765  0.827746829878287  1.0000
  H   H93       1.0  0.48414358315873357  0.4443289097700329  0.22750178840189772  1.0000
  H   H94       1.0  0.5158564168337492  0.9443289100606739  0.27249821146791864  1.0000
  H   H95       1.0  0.5158564161316045  0.5556710902654017  0.7724982116758294  1.0000
  H   H96       1.0  0.48414358352165976  0.05567108997476094  0.7275017886097893  1.0000
  H   H97       1.0  0.658732444193125  0.4841878702376705  0.2383013401214775  1.0000
  H   H98       1.0  0.34126755579935775  0.9841878699824643  0.26169865974833884  1.0000
  H   H99       1.0  0.3412675561622839  0.5158121297977643  0.7616986599562304  1.0000
  H   H100      1.0  0.6587324434909803  0.015812130052970365  0.7383013403293883  1.0000
  H   H101      1.0  0.032173786681760325  0.2039364958144956  0.33192199932542077  1.0000
  H   H102      1.0  0.9678262122456517  0.7039364961051364  0.16807800054441493  1.0000
  H   H103      1.0  0.9678262126085778  0.7960635036750922  0.6680780007523065  1.0000
  H   H104      1.0  0.03217378704468642  0.2960635039302983  0.8319219995333124  1.0000
  H   H105      1.0  0.9347893762109077  0.22912896124014018  0.4109956802530752  1.0000
  H   H106      1.0  0.06521062397101045  0.7291289609849341  0.08900432024302371  1.0000
  H   H107      1.0  0.06521062414450117  0.7708710387952945  0.5890043198246326  1.0000
  H   H108      1.0  0.9347893763843984  0.2708710385046537  0.9109956798346842  1.0000
  H   H109      1.0  0.04689099413158856  0.2936869409578987  0.3716195882033004  1.0000
  H   H110      1.0  0.9531090058608942  0.7936869407026926  0.12838041166651598  1.0000
  H   H111      1.0  0.9531090062238203  0.706313059077536  0.6283804118744076  1.0000
  H   H112      1.0  0.04689099449451471  0.20631305933274216  0.871619588411192  1.0000
  H   H113      1.0  0.45720455231413826  0.09206769911702777  0.31782497604202914  1.0000
  H   H114      1.0  0.5427954476783445  0.5920676988618216  0.18217502382778727  1.0000
  H   H115      1.0  0.5427954480412707  0.9079323009184069  0.6821750240356788  1.0000
  H   H116      1.0  0.4572045516119936  0.4079323006277661  0.81782497624994  1.0000
  H   H117      1.0  0.47104537548377323  0.07501463245322623  0.4699795595231191  1.0000
  H   H118      1.0  0.5289546245087094  0.5750146321980201  0.030020440346697253  1.0000
  H   H119      1.0  0.5289546248716356  0.9249853675822085  0.5300204405545887  1.0000
  H   H120      1.0  0.4710453758466993  0.4249853678374146  0.9699795597310106  1.0000
  H   H121      1.0  0.7118171230671588  0.06272452844184823  0.563357257818421  1.0000
  H   H122      1.0  0.28818287746174076  0.5627245287324891  0.9366427418408957  1.0000
  H   H123      1.0  0.2881828772882501  0.9372754715935864  0.43664274225928684  1.0000
  H   H124      1.0  0.711817122893668  0.43727547130294564  0.06335725823681213  1.0000
  H   H125      1.0  0.938356510705018  0.07412938389757613  0.5039705061758887  1.0000
  H   H126      1.0  0.061643488758810844  0.57412938364237  0.9960294934834475  1.0000
  H   H127      1.0  0.06164348858532008  0.9258706161378586  0.4960294939018384  1.0000
  H   H128      1.0  0.9383565115965982  0.42587061639306467  0.003970506594260498  1.0000
  H   H129      1.0  0.9266833043111632  0.09078871424555875  0.35296010165495884  1.0000
  H   H130      1.0  0.07331669568131959  0.5907887139903527  0.14703989821485758  1.0000
  H   H131      1.0  0.07331669497917497  0.9092112857898761  0.6470398984227684  1.0000
  H   H132      1.0  0.9266833046740894  0.40921128604508206  0.8529601018628503  1.0000
  H   H133      1.0  0.21103006573529873  0.12862010552916095  0.43493284082921985  1.0000
  H   H134      1.0  0.788969934257184  0.6286201058198019  0.06506715904059651  1.0000
  H   H135      1.0  0.7889699346201101  0.8713798945062737  0.565067159248488  1.0000
  H   H136      1.0  0.21103006590878948  0.3713798942156329  0.9349328404108288  1.0000
  C   C1        1.0  0.8240799241090789  0.10587224944658717  0.2004063163944676  1.0000
  C   C2        1.0  0.17592007588340391  0.605872249191381  0.29959368347534876  1.0000
  C   C3        1.0  0.17592007624633005  0.8941277505888476  0.7995936836832404  1.0000
  C   C4        1.0  0.8240799234069343  0.39412775084405366  0.7004063166023785  1.0000
  C   C5        1.0  0.6817409919853398  0.0974013169023051  0.23420232614360645  1.0000
  C   C6        1.0  0.31825900694207215  0.5974013171929459  0.26579767372622926  1.0000
  C   C7        1.0  0.3182590071155628  0.9025986831331297  0.7657976733078381  1.0000
  C   C8        1.0  0.681740992348266  0.4025986828424888  0.734202326351498  1.0000
  C   C9        1.0  0.018895242257044607  0.05002535527423359  0.14086764737983584  1.0000
  C   C10       1.0  0.9811047577354381  0.5500253550190275  0.35913235248998054  1.0000
  C   C11       1.0  0.9811047579089288  0.9499746447612012  0.8591323520715894  1.0000
  C   C12       1.0  0.018895241554900005  0.4499746450164072  0.6408676475877468  1.0000
  C   C13       1.0  0.06946917331971748  0.12485286266442527  0.11938018667215326  1.0000
  C   C14       1.0  0.9305308266727653  0.624852862955066  0.38061981319766314  1.0000
  C   C15       1.0  0.9305308270356915  0.8751471373710095  0.8806198134055546  1.0000
  C   C16       1.0  0.06946917242813747  0.3751471370803686  0.6193801862537816  1.0000
  C   C17       1.0  0.007847244210824514  0.18712073337666063  0.1626728081172875  1.0000
  C   C18       1.0  0.9921527557816581  0.6871207336673014  0.3373271917525289  1.0000
  C   C19       1.0  0.9921527561445843  0.8128792666587741  0.8373271919604205  1.0000
  C   C20       1.0  0.007847243508679906  0.31287926636813324  0.6626728083251984  1.0000
  C   C21       1.0  0.005486806844949032  0.13698203844474335  0.024906244802866087  1.0000
  C   C22       1.0  0.9945131933369692  0.6369820387353842  0.4750937556932328  1.0000
  C   C23       1.0  0.9945131935104599  0.8630179615906914  0.9750937552748419  1.0000
  C   C24       1.0  0.005486807018439796  0.36301796130005054  0.5249062443844751  1.0000
  C   C25       1.0  0.2345679464796233  0.12979305417494305  0.13145622504691926  1.0000
  C   C26       1.0  0.7654320537022948  0.6297930544655839  0.36854377544917966  1.0000
  C   C27       1.0  0.7654320528107147  0.8702069458604917  0.8685437750308078  1.0000
  C   C28       1.0  0.23456794665311403  0.37020694556985084  0.6314562246285281  1.0000
  C   C29       1.0  0.810985509998507  0.9759389039111087  0.1696934998879345  1.0000
  C   C30       1.0  0.1890144899939757  0.4759389041663149  0.3303064999818819  1.0000
  C   C31       1.0  0.18901448929183107  0.02406109612432599  0.8303065001897928  1.0000
  C   C32       1.0  0.8109855103614332  0.5240610958691199  0.669693500095826  1.0000
  C   C33       1.0  0.8382719684639215  0.9260838567016745  0.23597944377359636  1.0000
  C   C34       1.0  0.16172803152856127  0.4260838569568805  0.26402055609622005  1.0000
  C   C35       1.0  0.16172803189148743  0.07391614333376033  0.7640205563041116  1.0000
  C   C36       1.0  0.8382719677617768  0.5739161430785542  0.7359794439815072  1.0000
  C   C37       1.0  0.7570857316967661  0.861311748327136  0.22750461807175  1.0000
  C   C38       1.0  0.2429142682957167  0.36131174803649524  0.27249538179806637  1.0000
  C   C39       1.0  0.24291426865864285  0.13868825170829865  0.772495382005958  1.0000
  C   C40       1.0  0.7570857320596921  0.6386882519989395  0.7275046182796415  1.0000
  C   C41       1.0  0.6605034356702288  0.8436358310089691  0.1548879327737018  1.0000
  C   C42       1.0  0.3394965645116893  0.34363583126417513  0.3451120677223971  1.0000
  C   C43       1.0  0.3394965646851801  0.1563641690264657  0.8451120673040062  1.0000
  C   C44       1.0  0.6605034358437195  0.6563641687712596  0.6548879323553106  1.0000
  C   C45       1.0  0.6426194982608013  0.8937671302607576  0.08841463084915875  1.0000
  C   C46       1.0  0.35738050173168157  0.39376713051596357  0.4115853690206576  1.0000
  C   C47       1.0  0.35738050190517234  0.10623286977467726  0.9115853686022667  1.0000
  C   C48       1.0  0.6426194986237272  0.6062328695194712  0.5884146310570503  1.0000
  C   C49       1.0  0.7153878795399511  0.9604609817447143  0.09449453621582987  1.0000
  C   C50       1.0  0.2846121193874609  0.46046098199992036  0.4055054636540058  1.0000
  C   C51       1.0  0.284612119750387  0.03953901774487348  0.9055054638618975  1.0000
  C   C52       1.0  0.7153878797134419  0.5395390180355143  0.5944945357974388  1.0000
  C   C53       1.0  0.9503150187074799  0.9365086931109666  0.3130758603543915  1.0000
  C   C54       1.0  0.04968498128500273  0.4365086933661728  0.18692413951542486  1.0000
  C   C55       1.0  0.0496849816479289  0.06349130692446803  0.6869241397233165  1.0000
  C   C56       1.0  0.9503150188809708  0.563491306669262  0.8130758599360005  1.0000
  C   C57       1.0  0.5817577330954462  0.7719789841670708  0.14788045092564256  1.0000
  C   C58       1.0  0.41824226708647194  0.27197898442227686  0.3521195495704564  1.0000
  C   C59       1.0  0.4182422661948919  0.22802101586836399  0.8521195491520847  1.0000
  C   C60       1.0  0.581757733268937  0.7280210156131579  0.6478804505072516  1.0000
  C   C61       1.0  0.6928480090235506  0.013197192448763714  0.022501758679840837  1.0000
  C   C62       1.0  0.30715199096893214  0.5131971927394046  0.4774982411899755  1.0000
  C   C63       1.0  0.30715199114242286  0.986802807586671  0.9774982407715844  1.0000
  C   C64       1.0  0.6928480093864768  0.4868028072960302  0.5225017588877324  1.0000
  C   C65       1.0  0.7965321938337275  0.23749542850621563  0.2151802210040137  1.0000
  C   C66       1.0  0.20346780615875523  0.7374954282510096  0.28481977886580273  1.0000
  C   C67       1.0  0.20346780652168137  0.7625045715292191  0.7848197790736943  1.0000
  C   C68       1.0  0.796532193131583  0.2625045717844252  0.7151802212119245  1.0000
  C   C69       1.0  0.6847741208704505  0.2649945426453754  0.1535928860894936  1.0000
  C   C70       1.0  0.31522587912203226  0.7649945423901693  0.3464071137803228  1.0000
  C   C71       1.0  0.31522587841988764  0.7350054573900593  0.8464071139882337  1.0000
  C   C72       1.0  0.6847741212333767  0.23500545764526543  0.6535928862973852  1.0000
  C   C73       1.0  0.6165749952878214  0.32927938929016914  0.1719225278449907  1.0000
  C   C74       1.0  0.3834250047046614  0.829279389034963  0.3280774720248257  1.0000
  C   C75       1.0  0.3834250040025168  0.6707206107452656  0.8280774722327365  1.0000
  C   C76       1.0  0.6165749956507476  0.17072061100047167  0.6719225280528822  1.0000
  C   C77       1.0  0.6613934966876722  0.36782284281373145  0.24657835978170098  1.0000
  C   C78       1.0  0.33860650330481046  0.8678228425585254  0.25342164008811535  1.0000
  C   C79       1.0  0.33860650260266584  0.6321771572217033  0.7534216402960262  1.0000
  C   C80       1.0  0.6613934970505985  0.13217715747690942  0.7465783599895927  1.0000
  C   C81       1.0  0.7747836917598014  0.339108719247329  0.3048465840983524  1.0000
  C   C82       1.0  0.22521630842211676  0.8391087189921229  0.19515341639774655  1.0000
  C   C83       1.0  0.22521630859560754  0.6608912807881057  0.6951534159793555  1.0000
  C   C84       1.0  0.7747836908682214  0.16089128104331185  0.8048465836799807  1.0000
  C   C85       1.0  0.8454333718016864  0.27428129419850183  0.2906395946501932  1.0000
  C   C86       1.0  0.15456662819079642  0.7742812944891426  0.20936040521962315  1.0000
  C   C87       1.0  0.15456662748865183  0.7257187058369329  0.7093604054275341  1.0000
  C   C88       1.0  0.8454333721646125  0.22571870554629203  0.7906395948580848  1.0000
  C   C89       1.0  0.6419804551604952  0.22994899364147958  0.06919111027356249  1.0000
  C   C90       1.0  0.35801954483198756  0.7299489939321204  0.4308088895962539  1.0000
  C   C91       1.0  0.35801954519491364  0.7700510058481081  0.9308088898041454  1.0000
  C   C92       1.0  0.6419804544583506  0.2700510061033143  0.5691911104814734  1.0000
  C   C93       1.0  0.595758519907167  0.4402149018099706  0.2610893126144053  1.0000
  C   C94       1.0  0.4042414800853158  0.9402149015547644  0.23891068725541104  1.0000
  C   C95       1.0  0.40424148044824193  0.5597850982254642  0.7389106874633027  1.0000
  C   C96       1.0  0.5957585192050223  0.0597850984806703  0.7610893128223162  1.0000
  C   C97       1.0  0.9709847183110109  0.24853352831429865  0.3539531676589442  1.0000
  C   C98       1.0  0.02901528187090738  0.7485335286049395  0.14604683283715472  1.0000
  C   C99       1.0  0.029015282044398124  0.7514664717211361  0.6460468324187637  1.0000
  C   C100      1.0  0.9709847184845015  0.2514664714304953  0.8539531672405533  1.0000
  C   C101      1.0  0.6905886051800775  0.09164663715777163  0.3245467540004976  1.0000
  C   C102      1.0  0.30941139481240526  0.5916466374484125  0.17545324586931876  1.0000
  C   C103      1.0  0.3094113941102606  0.9083533623318162  0.6754532460772296  1.0000
  C   C104      1.0  0.6905886055430036  0.40835336258702226  0.8245467542083891  1.0000
  C   C105      1.0  0.5623326936081595  0.08774304445778694  0.35837011812762876  1.0000
  C   C106      1.0  0.4376673063843234  0.5877430442025808  0.14162988174218766  1.0000
  C   C107      1.0  0.4376673056821787  0.9122569555776479  0.6416298819500985  1.0000
  C   C108      1.0  0.5623326939710855  0.4122569558328539  0.8583701183355202  1.0000
  C   C109      1.0  0.5704145029526015  0.07798573954961105  0.44395497533956496  1.0000
  C   C110      1.0  0.42958549703988125  0.5779857398402518  0.05604502453025143  1.0000
  C   C111      1.0  0.4295854974028073  0.9220142604858236  0.556045024738143  1.0000
  C   C112      1.0  0.5704145033155276  0.42201426019518284  0.9439549755474564  1.0000
  C   C113      1.0  0.7055913314332358  0.0720135490806855  0.4964110225033288  1.0000
  C   C114      1.0  0.2944086685592468  0.5720135488254794  0.0035889773664876004  1.0000
  C   C115      1.0  0.29440866785710224  0.9279864509547493  0.5035889775743986  1.0000
  C   C116      1.0  0.7055913317961621  0.4279864512099553  0.9964110227112203  1.0000
  C   C117      1.0  0.8330388833694043  0.07760830386082646  0.4634199683155367  1.0000
  C   C118      1.0  0.16696111662307847  0.5776083036056204  0.036580031554279656  1.0000
  C   C119      1.0  0.16696111679656922  0.9223916961746083  0.5365800311358887  1.0000
  C   C120      1.0  0.8330388837323304  0.42239169642981433  0.9634199685234281  1.0000
  C   C121      1.0  0.8259180006061874  0.08751776469396214  0.3777412240481248  1.0000
  C   C122      1.0  0.17408199938629546  0.587517764984603  0.1222587758216916  1.0000
  C   C123      1.0  0.17408199974922156  0.9124822347956256  0.6222587760295831  1.0000
  C   C124      1.0  0.8259180009691135  0.41248223505083176  0.8777412242560164  1.0000
  N   N1        1.0  0.8855392679359186  0.04636533203134096  0.17367342961772553  1.0000
  N   N2        1.0  0.11446073205656414  0.5463653317761349  0.32632657025209083  1.0000
  N   N3        1.0  0.11446073223005489  0.9536346680040937  0.8263265698336998  1.0000
  N   N4        1.0  0.8855392682988448  0.4536346682592999  0.6736734298256172  1.0000
  N   N5        1.0  0.8752019290591704  0.1733302566186388  0.19396947180700044  1.0000
  N   N6        1.0  0.12479807093331236  0.6733302569092796  0.30603052806281594  1.0000
  N   N7        1.0  0.12479807129623846  0.826669742870949  0.8060305282707074  1.0000
  N   N8        1.0  0.8752019281675903  0.3266697431261551  0.6939694713886287  1.0000
  O   O1        1.0  0.07505053543513744  0.993429610451444  0.1244054024991397  1.0000
  O   O2        1.0  0.9249494645573454  0.4934296107066501  0.3755945973706767  1.0000
  O   O3        1.0  0.9249494638552007  0.006570389583990771  0.8755945975785875  1.0000
  O   O4        1.0  0.07505053579806358  0.5065703893287847  0.6244054027070313  1.0000
  O   O5        1.0  0.05413873676606005  0.24886792560976118  0.16488483422492894  1.0000
  O   O6        1.0  0.9458612632264226  0.7488679253545552  0.33511516564488747  1.0000
  O   O7        1.0  0.945861262524278  0.7511320744256735  0.8351151658527983  1.0000
  O   O8        1.0  0.05413873712898616  0.25113207468087967  0.6648848344328204  1.0000
  O   O9        1.0  0.5715045650209817  0.09557690157656483  0.18031797404190367  1.0000
  O   O10       1.0  0.4284954351609364  0.5955769013213588  0.3196820264541953  1.0000
  O   O11       1.0  0.4284954353344272  0.90442309845887  0.8196820260358043  1.0000
  O   O12       1.0  0.5715045651944725  0.404423098714076  0.6803179736235127  1.0000
  Cl  Cl1       1.0  0.23287702357247908  0.15844353144282122  0.5158718002868035  1.0000
  Cl  Cl2       1.0  0.7671229769564206  0.658443531733462  0.9841281993725135  1.0000
  Cl  Cl3       1.0  0.7671229765934945  0.8415564685926135  0.48412819916462196  1.0000
  Cl  Cl4       1.0  0.2328770233989883  0.34155646830197267  0.01587180070519443  1.0000
  Cl  Cl5       1.0  0.18242174585569937  0.09127436245176204  0.3307018072871271  1.0000
  Cl  Cl6       1.0  0.8175782541367833  0.5912743627424029  0.1692981925826893  1.0000
  Cl  Cl7       1.0  0.8175782543102741  0.9087256370378258  0.6692981921642982  1.0000
  Cl  Cl8       1.0  0.1824217462186255  0.40872563729303185  0.8307018074950187  1.0000
