data_image0
_chemical_formula_structural       H62C66N6O16Br2I2
_chemical_formula_sum              "H62 C66 N6 O16 Br2 I2"
_cell_length_a       8.605378067514595
_cell_length_b       12.041760044326605
_cell_length_c       16.05910736968931
_cell_angle_alpha    75.34752076353742
_cell_angle_beta     88.36622655646426
_cell_angle_gamma    82.54403466728554

_space_group_name_H-M_alt    "P 1"
_space_group_IT_number       1

loop_
  _space_group_symop_operation_xyz
  'x, y, z'

loop_
  _atom_site_type_symbol
  _atom_site_label
  _atom_site_symmetry_multiplicity
  _atom_site_fract_x
  _atom_site_fract_y
  _atom_site_fract_z
  _atom_site_occupancy
  H   H1        1.0  0.6910737396052575  0.862907742909884  0.2089595647384165  1.0000
  H   H2        1.0  0.30892625968125637  0.13709225763209099  0.7910404354360301  1.0000
  H   H3        1.0  0.7826150591900479  0.6104783255721793  0.2885913009004096  1.0000
  H   H4        1.0  0.21738494024147997  0.3895216741320146  0.7114086992748431  1.0000
  H   H5        1.0  0.6537587678635415  0.5095816407754612  0.2832473802971231  1.0000
  H   H6        1.0  0.34624123258594697  0.49041835976105624  0.7167526198784007  1.0000
  H   H7        1.0  0.7961004985984105  0.5449184061205308  0.20162965748118172  1.0000
  H   H8        1.0  0.20389950083311756  0.4550815935836631  0.798370342694071  1.0000
  H   H9        1.0  0.4787022176019731  0.634096381265699  0.7007746714106992  1.0000
  H   H10       1.0  0.5212977818295548  0.3659036184384949  0.29922532876455354  1.0000
  H   H11       1.0  0.3063881589919716  0.7367714732727627  0.680078189378607  1.0000
  H   H12       1.0  0.6936118404395565  0.26322852643143124  0.3199218107966457  1.0000
  H   H13       1.0  0.3386275447124776  0.949330741006233  0.2743242277614349  1.0000
  H   H14       1.0  0.6613724547190505  0.050669258697960864  0.7256757724138179  1.0000
  H   H15       1.0  0.7693952742280405  0.8699571722079913  0.6047124437205571  1.0000
  H   H16       1.0  0.23060472636646207  0.13004282749074492  0.3952875564557728  1.0000
  H   H17       1.0  0.20670861114852032  0.9820218156244956  0.18627177130355843  1.0000
  H   H18       1.0  0.7932913894459823  0.0179781840742406  0.8137282288727715  1.0000
  H   H19       1.0  0.18972519834218268  0.8609128574702511  0.2753807681033335  1.0000
  H   H20       1.0  0.8102748021041638  0.1390871432828257  0.7246192314285534  1.0000
  H   H21       1.0  0.8287849639516998  0.9981700888884323  0.5349291145259901  1.0000
  H   H22       1.0  0.17121503547982825  0.0018299108157617309  0.46507088564926263  1.0000
  H   H23       1.0  0.633501970778106  0.9981978682823882  0.5736190547636791  1.0000
  H   H24       1.0  0.366498028653422  0.0018021314218057169  0.42638094541157345  1.0000
  H   H25       1.0  0.9796296228389202  0.11017688472375406  0.25309165242555676  1.0000
  H   H26       1.0  0.020370376444451516  0.8898231160347806  0.7469083471052529  1.0000
  H   H27       1.0  0.3197530298128644  0.9422222153412185  0.06197004960380229  1.0000
  H   H28       1.0  0.6802469696155216  0.057777784579534995  0.9380299499278134  1.0000
  H   H29       1.0  0.40675485838656616  0.7192876924754561  0.8268019546511172  1.0000
  H   H30       1.0  0.5932451420629223  0.28071230806106107  0.1731980455244067  1.0000
  H   H31       1.0  0.4283928078978511  0.8594495808811176  0.7615357932183827  1.0000
  H   H32       1.0  0.5716071926935095  0.14055041903417828  0.23846420631431023  1.0000
  H   H33       1.0  0.5947532716742439  0.7505894798730738  0.7859517120916765  1.0000
  H   H34       1.0  0.4052467276122702  0.24941052066890115  0.21404828808277016  1.0000
  H   H35       1.0  0.8974729734144475  0.07550530511217655  0.40583426749818075  1.0000
  H   H36       1.0  0.10252702601393857  0.924494694808577  0.5941657320334349  1.0000
  H   H37       1.0  0.47501950766738105  0.7663352083837582  0.935645714780719  1.0000
  H   H38       1.0  0.5249804927821075  0.23366479215275912  0.06435428539480488  1.0000
  H   H39       1.0  0.4340903067382893  0.9157227205948114  0.9309974159977468  1.0000
  H   H40       1.0  0.5659096938530711  0.08427727932048452  0.06900258353494607  1.0000
  H   H41       1.0  0.631966050097499  0.8463105680892453  0.9359870975519213  1.0000
  H   H42       1.0  0.3680339504970037  0.15368943160949075  0.06401290262440866  1.0000
  H   H43       1.0  0.6966452009792652  0.6675682500103758  0.07100970669990209  1.0000
  H   H44       1.0  0.30335479961523754  0.3324317496883603  0.9289902934764279  1.0000
  H   H45       1.0  0.7106098864639583  0.476560434896053  0.5156373011744447  1.0000
  H   H46       1.0  0.2893901128225557  0.5234395656459221  0.4843626990000019  1.0000
  H   H47       1.0  0.8692879835241673  0.6096863569170324  0.41691839627495497  1.0000
  H   H48       1.0  0.13071201692532114  0.3903136436194849  0.5830816039005688  1.0000
  H   H49       1.0  0.8772558919281673  0.5878692130761081  0.7304935985985196  1.0000
  H   H50       1.0  0.1227441086663351  0.4121307866226281  0.2695064015778103  1.0000
  H   H51       1.0  0.03291844636297306  0.7202800704029136  0.6299420647445209  1.0000
  H   H52       1.0  0.9670815540833734  0.2797199303501634  0.370057934787366  1.0000
  H   H53       1.0  0.8801102522908865  0.33760812981914257  0.8302965515418453  1.0000
  H   H54       1.0  0.11988974699562742  0.6623918707228325  0.16970344863260134  1.0000
  H   H55       1.0  0.04827005708262263  0.24842304119181294  0.9607574978621742  1.0000
  H   H56       1.0  0.9517299433668658  0.7515769593447044  0.03924250231334955  1.0000
  H   H57       1.0  0.7713774356212099  0.4623655350184939  0.10162614633662327  1.0000
  H   H58       1.0  0.2286225638071761  0.5376344649022597  0.8983738531949925  1.0000
  H   H59       1.0  0.6054266288594377  0.5559694556966236  0.9701062761825922  1.0000
  H   H60       1.0  0.3945733717319228  0.4440305442186725  0.029893723350100782  1.0000
  H   H61       1.0  0.6697880358375377  0.47498646785307036  0.7702056372746054  1.0000
  H   H62       1.0  0.33021196475382286  0.5250135320622257  0.22979436225808744  1.0000
  C   C1        1.0  0.5055396738115772  0.8062229159671959  0.05574180358280191  1.0000
  C   C2        1.0  0.49446032561995107  0.1937770837369979  0.9442581965924507  1.0000
  C   C3        1.0  0.2728257969772053  0.9109172176045671  0.23328601774947613  1.0000
  C   C4        1.0  0.7271742034722831  0.08908278293194999  0.7667139824260478  1.0000
  C   C5        1.0  0.5921140350147756  0.8263717061119296  0.4753441968639927  1.0000
  C   C6        1.0  0.40788596557658496  0.17362829380336614  0.5246558026687004  1.0000
  C   C7        1.0  0.853436369315851  0.027652644216040752  0.3642623012256988  1.0000
  C   C8        1.0  0.14656362997066288  0.9723473563259343  0.6357376989487479  1.0000
  C   C9        1.0  0.7484057212403229  0.946614765847255  0.3949737655288983  1.0000
  C   C10       1.0  0.2515942781912052  0.05338523385693873  0.6050262346463544  1.0000
  C   C11       1.0  0.5884934314332759  0.8106099957761842  0.3923844633738963  1.0000
  C   C12       1.0  0.41150656799825214  0.18939000392800964  0.6076155368013564  1.0000
  C   C13       1.0  0.48257005906774797  0.7401121017424067  0.23318822077648793  1.0000
  C   C14       1.0  0.5174299413817405  0.2598878987941105  0.7668117793990359  1.0000
  C   C15       1.0  0.6872394093542967  0.8857889045406164  0.33957303396373256  1.0000
  C   C16       1.0  0.31276059007723134  0.11421109516357733  0.6604269662115201  1.0000
  C   C17       1.0  0.7347193329622762  0.9072491927919559  0.2527437085566901  1.0000
  C   C18       1.0  0.2652806663242376  0.09275080775001904  0.7472562916177565  1.0000
  C   C19       1.0  0.508534315696897  0.7595605938359791  0.547148734275194  1.0000
  C   C20       1.0  0.49146568475259156  0.24043940670053823  0.45285126590033  1.0000
  C   C21       1.0  0.8991767711176465  0.047110744034046394  0.2787151703053601  1.0000
  C   C22       1.0  0.10082322947371414  0.9528892558812494  0.721284829227333  1.0000
  C   C23       1.0  0.7326873485513382  0.9457389144381376  0.5519508167273875  1.0000
  C   C24       1.0  0.26731265088018985  0.05426108526605625  0.4480491834478652  1.0000
  C   C25       1.0  0.8395517289479404  0.9864309380531849  0.22469149500427407  1.0000
  C   C26       1.0  0.16044827048358762  0.01356906165100894  0.7753085051709786  1.0000
  C   C27       1.0  0.4325975667116147  0.7251462865556786  0.6939826157706893  1.0000
  C   C28       1.0  0.5674024337378738  0.27485371398083863  0.30601738440483445  1.0000
  C   C29       1.0  0.5988335768381551  0.6776700045338373  0.19385932400185735  1.0000
  C   C30       1.0  0.40116642259337304  0.3223299951703566  0.8061406761733954  1.0000
  C   C31       1.0  0.6077174044527301  0.7135573579433783  0.10414406995935313  1.0000
  C   C32       1.0  0.3922825961386304  0.28644264197191754  0.8958559295733399  1.0000
  C   C33       1.0  0.46882668979210235  0.7668515326485841  0.7711702876608943  1.0000
  C   C34       1.0  0.5311733107992583  0.23314846726671185  0.22882971187179857  1.0000
  C   C35       1.0  0.38313577632868456  0.8376516522400079  0.18881253693187627  1.0000
  C   C36       1.0  0.6168642231028435  0.1623483474641859  0.8111874632433764  1.0000
  C   C37       1.0  0.5122841792059036  0.8366249717238238  0.9594388863816773  1.0000
  C   C38       1.0  0.487715821388599  0.16337502797491238  0.04056111379465261  1.0000
  C   C39       1.0  0.7131080374334763  0.5804088462014848  0.24412667033389676  1.0000
  C   C40       1.0  0.2868919618498955  0.41959115455705  0.7558733291969129  1.0000
  C   C41       1.0  0.39672392139511403  0.8679550906793254  0.09895005296927643  1.0000
  C   C42       1.0  0.6032760778882579  0.13204491007920932  0.9010499465615331  1.0000
  C   C43       1.0  0.7799775990070028  0.5299261498600908  0.5412633402155242  1.0000
  C   C44       1.0  0.2200224014424857  0.4700738506764265  0.4587366599599995  1.0000
  C   C45       1.0  0.7800424883016636  0.5217047837712508  0.6313190270490672  1.0000
  C   C46       1.0  0.21995751229283914  0.47829521592748525  0.3686809731272627  1.0000
  C   C47       1.0  0.9606322328496095  0.6673727417834546  0.6058684449004897  1.0000
  C   C48       1.0  0.03936776759673699  0.3326272589696223  0.39413155463139726  1.0000
  C   C49       1.0  0.9566968267780881  0.6741792318601276  0.5173150471318868  1.0000
  C   C50       1.0  0.04330317381641461  0.32582076783860847  0.48268495304444303  1.0000
  C   C51       1.0  0.866998912000749  0.6044272299349979  0.4855301803497663  1.0000
  C   C52       1.0  0.13300108844873945  0.39557277060151946  0.5144698198257576  1.0000
  C   C53       1.0  0.874057015574715  0.5924948926677261  0.6619288818253319  1.0000
  C   C54       1.0  0.1259429850197876  0.40750510703101  0.33807111835099796  1.0000
  C   C55       1.0  0.8582739476373287  0.3653807748178591  0.8895932313265617  1.0000
  C   C56       1.0  0.14172605164604307  0.6346192259406758  0.11040676820424791  1.0000
  C   C57       1.0  0.918747155041004  0.3517721533991879  0.037647239995914905  1.0000
  C   C58       1.0  0.08125284555349879  0.6482278462995482  0.962352760180415  1.0000
  C   C59       1.0  0.9514878627848246  0.315934155264092  0.9616628564926312  1.0000
  C   C60       1.0  0.048512136501689146  0.6840658452778832  0.03833714368181542  1.0000
  C   C61       1.0  0.7316334200393343  0.45214792197943643  0.8925405923973994  1.0000
  C   C62       1.0  0.2683665805551683  0.5478520777192998  0.10745940777893054  1.0000
  C   C63       1.0  0.7934356479340773  0.4371804562978314  0.04156759092899897  1.0000
  C   C64       1.0  0.20656435149745078  0.5628195434063624  0.9584324092462537  1.0000
  C   C65       1.0  0.7017087134925138  0.48785878697454693  0.9694855330647697  1.0000
  C   C66       1.0  0.2982912870988467  0.512141212940749  0.030514466467923145  1.0000
  N   N1        1.0  0.6896341732707915  0.909208907932457  0.47678870339692236  1.0000
  N   N2        1.0  0.3103658273237112  0.09079109176627907  0.5232112967794076  1.0000
  N   N3        1.0  0.04577414834488869  0.7511279439441035  0.45865433757707375  1.0000
  N   N4        1.0  0.9542258509416254  0.24887205659787154  0.5413456625973728  1.0000
  N   N5        1.0  0.013635052940841453  0.300970229167128  0.11325686117437114  1.0000
  N   N6        1.0  0.9863649464906866  0.6990297705370659  0.8867431390008815  1.0000
  O   O1        1.0  0.4419949522749507  0.6772786051641173  0.5393684289265754  1.0000
  O   O2        1.0  0.5580050483164098  0.3227213947511785  0.4606315706061175  1.0000
  O   O3        1.0  0.5093827793451015  0.7943170888778334  0.6198339744366749  1.0000
  O   O4        1.0  0.49061721993827045  0.20568291188070123  0.38016602509413483  1.0000
  O   O5        1.0  0.6964835606073393  0.45172903161730166  0.6850659151152554  1.0000
  O   O6        1.0  0.3035164399871634  0.5482709680814346  0.3149340850610745  1.0000
  O   O7        1.0  0.050807408435399284  0.7479446884784408  0.38127622160878866  1.0000
  O   O8        1.0  0.9491925909961287  0.25205531122575303  0.618723778566464  1.0000
  O   O9        1.0  0.11665433744474582  0.8193327107131769  0.486617351616534  1.0000
  O   O10       1.0  0.8833456619867822  0.1806672889910169  0.5133826485587186  1.0000
  O   O11       1.0  0.6377044777307493  0.502619882552178  0.8257725274756165  1.0000
  O   O12       1.0  0.3622955217007788  0.4973801171520158  0.17422747269963623  1.0000
  O   O13       1.0  0.9709447109262782  0.32576513948083524  0.18243181587638035  1.0000
  O   O14       1.0  0.029055288502107795  0.6742348604399182  0.8175681836552354  1.0000
  O   O15       1.0  0.13430301050844667  0.23335301635971675  0.10776395411680915  1.0000
  O   O16       1.0  0.865696990086056  0.7666469833390195  0.8922360460595208  1.0000
  Br  Br1       1.0  0.9029941189582866  0.015553910995141047  0.10660604430806352  1.0000
  Br  Br2       1.0  0.09700588047324143  0.9844460887090528  0.8933939558671892  1.0000
  I   I1        1.0  0.4564431486518248  0.6862699234483803  0.36809808645585246  1.0000
  I   I2        1.0  0.5435568507797033  0.3137300762558135  0.6319019137194003  1.0000
