data_image0
_chemical_formula_structural       H44C16N8O16Br4
_chemical_formula_sum              "H44 C16 N8 O16 Br4"
_cell_length_a       5.373488836410602
_cell_length_b       8.100811907040152
_cell_length_c       18.153027590784276
_cell_angle_alpha    90.0
_cell_angle_beta     90.0
_cell_angle_gamma    90.0

_space_group_name_H-M_alt    "P 1"
_space_group_IT_number       1

loop_
  _space_group_symop_operation_xyz
  'x, y, z'

loop_
  _atom_site_type_symbol
  _atom_site_label
  _atom_site_symmetry_multiplicity
  _atom_site_fract_x
  _atom_site_fract_y
  _atom_site_fract_z
  _atom_site_occupancy
  H   H1        1.0  0.5100427549842546  0.0867321903116146  0.14954927691390746  1.0000
  H   H2        1.0  0.010042754650263205  0.4132678092538517  0.8504507235937613  1.0000
  H   H3        1.0  0.4899572456837281  0.586732189877081  0.3504507233399269  1.0000
  H   H4        1.0  0.9899572460177195  0.9132678100537621  0.6495492766168696  1.0000
  H   H5        1.0  0.6761645051498838  0.26451180629657584  0.1216914241413633  1.0000
  H   H6        1.0  0.17616450481589246  0.23548819326889042  0.8783085758154332  1.0000
  H   H7        1.0  0.32383549365711056  0.7645118070964864  0.37830857611247104  1.0000
  H   H8        1.0  0.823835493991102  0.7354881928343567  0.6216914243951978  1.0000
  H   H9        1.0  0.9671539475034064  0.060599288766768164  0.14918440830084137  1.0000
  H   H10       1.0  0.467153947169415  0.4394007107986982  0.8508155916559551  1.0000
  H   H11       1.0  0.03284605130358799  0.5605992895666787  0.350815591952993  1.0000
  H   H12       1.0  0.5328460516375794  0.9394007103641644  0.6491844080038035  1.0000
  H   H13       1.0  0.9869228170840415  0.19257841904022222  0.219255870134886  1.0000
  H   H14       1.0  0.48692281675005017  0.30742158052524404  0.7807441298219104  1.0000
  H   H15       1.0  0.013077183583941195  0.6925784186056886  0.28074413011894833  1.0000
  H   H16       1.0  0.5130771839179326  0.8074215813251545  0.7192558698378481  1.0000
  H   H17       1.0  0.831731712126421  0.011052182303133217  0.2318665059561094  1.0000
  H   H18       1.0  0.33173171179242966  0.48894781849677726  0.7681334940006871  1.0000
  H   H19       1.0  0.1682682885415617  0.5110521818685995  0.268133494297725  1.0000
  H   H20       1.0  0.6682682888755531  0.9889478180622435  0.7318665056590714  1.0000
  H   H21       1.0  0.96703178106369  0.1722632639806438  0.4870257716397839  1.0000
  H   H22       1.0  0.46703178072969864  0.32773673558482247  0.5129742283170124  1.0000
  H   H23       1.0  0.03296821774330437  0.6722632635461101  0.012974228614050414  1.0000
  H   H24       1.0  0.5329682180772958  0.827736736384733  0.9870257718936184  1.0000
  H   H25       1.0  0.7751796936424694  0.22879622330068422  0.41189289018631203  1.0000
  H   H26       1.0  0.275179693308478  0.2712037762647821  0.5881071097704844  1.0000
  H   H27       1.0  0.22482030702551334  0.7287962228661505  0.08810711006752234  1.0000
  H   H28       1.0  0.7248203073595046  0.7712037770646926  0.9118928898892741  1.0000
  H   H29       1.0  0.649153346400189  0.9631831265232865  0.46215474295092746  1.0000
  H   H30       1.0  0.1491533460661976  0.5368168734075566  0.537845257005869  1.0000
  H   H31       1.0  0.35084665426779377  0.4631831269578202  0.03784525730290695  1.0000
  H   H32       1.0  0.8508466546017852  0.03681687260764611  0.9621547426538896  1.0000
  H   H33       1.0  0.7716721344804799  0.9289108136753956  0.3762032518182799  1.0000
  H   H34       1.0  0.27167213414648855  0.5710891862554475  0.6237967481385165  1.0000
  H   H35       1.0  0.22832786432651445  0.4289108128754851  0.12379674788468215  1.0000
  H   H36       1.0  0.7283278646605058  0.07108918668998121  0.8762032520721142  1.0000
  H   H37       1.0  0.9361652053529284  0.8887344531161346  0.45303133424283515  1.0000
  H   H38       1.0  0.4361652068799254  0.6112655480491527  0.5469686657139613  1.0000
  H   H39       1.0  0.06383479345406595  0.38873445231622406  0.046968666010999194  1.0000
  H   H40       1.0  0.5638347937880573  0.11126554724924222  0.9530313339457973  1.0000
  H   H41       1.0  0.41444214323288653  0.2886645532366648  0.349209169561237  1.0000
  H   H42       1.0  0.9144421435668779  0.21133544756324565  0.6507908303955594  1.0000
  H   H43       1.0  0.5855578555741078  0.7886645528021311  0.15079083014172506  1.0000
  H   H44       1.0  0.08555785710110475  0.711335447128712  0.8492091698150714  1.0000
  C   C1        1.0  0.6360132018591675  0.18432632026702345  0.16886905143890435  1.0000
  C   C2        1.0  0.13601320152517624  0.315673680532887  0.831130948517892  1.0000
  C   C3        1.0  0.3639867988088151  0.6843263198324897  0.3311309482640577  1.0000
  C   C4        1.0  0.863986797281818  0.8156736800983534  0.6688690516927387  1.0000
  C   C5        1.0  0.5063954542087883  0.2812423342430666  0.22932169904888844  1.0000
  C   C6        1.0  0.006395453874796886  0.2187576653223997  0.7706783014587804  1.0000
  C   C7        1.0  0.4936045464591945  0.781242335042977  0.2706783012049459  1.0000
  C   C8        1.0  0.9936045467931859  0.7187576648878661  0.7293216987518506  1.0000
  C   C9        1.0  0.915221183056387  0.14014807194984202  0.4306341678216038  1.0000
  C   C10       1.0  0.41522118272239567  0.35985192885006845  0.5693658321351927  1.0000
  C   C11       1.0  0.08477881761159568  0.6401480715153083  0.06936583243223056  1.0000
  C   C12       1.0  0.5847788160845987  0.8598519284155348  0.930634167524566  1.0000
  C   C13       1.0  0.1362640460027653  0.14955373287301227  0.37949810936757183  1.0000
  C   C14       1.0  0.6362640463367567  0.3504462679268982  0.6205018905892246  1.0000
  C   C15       1.0  0.8637359546652174  0.6495537324384786  0.12050189088626252  1.0000
  C   C16       1.0  0.3637359543312261  0.8504462674923644  0.8794981090705339  1.0000
  N   N1        1.0  0.8706825588429482  0.10711076247134242  0.19465049630585288  1.0000
  N   N2        1.0  0.3706825585089569  0.39288923832856804  0.8053495036509435  1.0000
  N   N3        1.0  0.12931744182503443  0.6071107620368087  0.3053495033971092  1.0000
  N   N4        1.0  0.6293174421590259  0.8928892378940344  0.6946504965596872  1.0000
  N   N5        1.0  0.8114080930914274  0.9714298357132557  0.42965113786085724  1.0000
  N   N6        1.0  0.3114080946184244  0.5285701642175873  0.5703488620959392  1.0000
  N   N7        1.0  0.18859190571556697  0.4714298361477894  0.07034886184210482  1.0000
  N   N8        1.0  0.6885919060495583  0.02857016465212107  0.9296511381146916  1.0000
  O   O1        1.0  0.2969946879178839  0.3460519923396495  0.21311508676183635  1.0000
  O   O2        1.0  0.7969946882518752  0.15394800846026097  0.7868849131949601  1.0000
  O   O3        1.0  0.7030053127500988  0.8460519919051158  0.2868849129411257  1.0000
  O   O4        1.0  0.20300531241610742  0.6539480080257273  0.7131150870156707  1.0000
  O   O5        1.0  0.6095857290713281  0.28723821472484745  0.29215366987556435  1.0000
  O   O6        1.0  0.10958573059832516  0.21276178484061883  0.7078463300812321  1.0000
  O   O7        1.0  0.3904142697356662  0.7872382142903138  0.20784633037827002  1.0000
  O   O8        1.0  0.8904142700696576  0.7127617856405293  0.7921536701293986  1.0000
  O   O9        1.0  0.17620598996767867  0.043231628387229035  0.3324433265921827  1.0000
  O   O10       1.0  0.6762059903016701  0.45676837117823726  0.6675566733646138  1.0000
  O   O11       1.0  0.823794010700304  0.5432316291871395  0.1675566731107794  1.0000
  O   O12       1.0  0.32379401036631267  0.9567683707437036  0.8324433268460171  1.0000
  O   O13       1.0  0.2732697088807713  0.28373047002887386  0.3896026282464568  1.0000
  O   O14       1.0  0.7732697092147627  0.21626953077103664  0.6103973717103397  1.0000
  O   O15       1.0  0.7267302917872114  0.7837304695943401  0.11039737200737754  1.0000
  O   O16       1.0  0.22673029145322002  0.7162695303365029  0.8896026279494189  1.0000
  Br  Br1       1.0  0.33163743598477047  0.9275282090514978  0.535510295535226  1.0000
  Br  Br2       1.0  0.8316374344577735  0.5724717908793453  0.46448970442157045  1.0000
  Br  Br3       1.0  0.6683625646832122  0.4275282082515873  0.9644897046754047  1.0000
  Br  Br4       1.0  0.16836256434922087  0.072471791313879  0.03551029528139169  1.0000
