data_image0
_chemical_formula_structural       H96C80N8O14F12S4
_chemical_formula_sum              "H96 C80 N8 O14 F12 S4"
_cell_length_a       9.747648208997376
_cell_length_b       13.724352209616148
_cell_length_c       16.160061282320154
_cell_angle_alpha    91.84184828256282
_cell_angle_beta     94.71730670319667
_cell_angle_gamma    108.72560272848396

_space_group_name_H-M_alt    "P 1"
_space_group_IT_number       1

loop_
  _space_group_symop_operation_xyz
  'x, y, z'

loop_
  _atom_site_type_symbol
  _atom_site_label
  _atom_site_symmetry_multiplicity
  _atom_site_fract_x
  _atom_site_fract_y
  _atom_site_fract_z
  _atom_site_occupancy
  H   H1        1.0  0.2373011687686098  0.6622172477399297  0.7518530356032084  1.0000
  H   H2        1.0  0.7626988312814516  0.33778275211478703  0.2481469643800549  1.0000
  H   H3        1.0  0.8786549098878912  0.6799935174618086  0.29342768170663186  1.0000
  H   H4        1.0  0.1213450901621701  0.3200064823929081  0.7065723182766315  1.0000
  H   H5        1.0  0.49370716160313793  0.39156659010552664  0.26134222193855117  1.0000
  H   H6        1.0  0.5062928384469233  0.6084334097491899  0.7386577780447121  1.0000
  H   H7        1.0  0.43223735717419653  0.5279177276038566  0.33251508922783646  1.0000
  H   H8        1.0  0.567762643234287  0.47208227302168837  0.6674849107962594  1.0000
  H   H9        1.0  0.4094715511798461  0.8821380916170453  0.5730675890589414  1.0000
  H   H10       1.0  0.5905284488702152  0.11786190823767141  0.426932410924322  1.0000
  H   H11       1.0  0.10949489617712124  0.441319282709699  0.5163293191107923  1.0000
  H   H12       1.0  0.89050510387294  0.5586807171450177  0.4836706808724709  1.0000
  H   H13       1.0  0.7142743346542397  0.7442706935192869  0.5213478372096122  1.0000
  H   H14       1.0  0.28572566539582167  0.2557293063354299  0.47865216277365114  1.0000
  H   H15       1.0  0.3417936544118894  0.9874869581087564  0.8151567573223195  1.0000
  H   H16       1.0  0.658206345638172  0.01251304174596041  0.1848432426609438  1.0000
  H   H17       1.0  0.11327455048809233  0.5739570563828682  0.6244105375699831  1.0000
  H   H18       1.0  0.8867254495652268  0.4260429434693273  0.3755894630321734  1.0000
  H   H19       1.0  0.5249099913937814  0.7656803255683199  0.5538859595337975  1.0000
  H   H20       1.0  0.4750900090147022  0.23431967505722498  0.44611404049029846  1.0000
  H   H21       1.0  0.10955800113895674  0.6392911377305489  0.8518949544674902  1.0000
  H   H22       1.0  0.8904419989111048  0.3607088621241679  0.148105045515773  1.0000
  H   H23       1.0  0.3120899639252425  0.4660964647377753  0.42935610735421476  1.0000
  H   H24       1.0  0.6879100361248188  0.5339035351169414  0.5706438926290485  1.0000
  H   H25       1.0  0.08405588551897179  0.6611171542701337  0.020393573683759075  1.0000
  H   H26       1.0  0.9159441145310896  0.33888284558458304  0.9796064262995041  1.0000
  H   H27       1.0  0.5183977080803954  0.3403356436634706  0.09700620183438968  1.0000
  H   H28       1.0  0.48160229196966603  0.6596643561912462  0.9029937981488735  1.0000
  H   H29       1.0  0.2856248322213213  0.11315860067217202  0.7258734578694048  1.0000
  H   H30       1.0  0.71437516782874  0.8868413991825446  0.2741265421138584  1.0000
  H   H31       1.0  0.44240967140658854  0.21291522343929756  0.7016248661793462  1.0000
  H   H32       1.0  0.5575903286434727  0.7870847764154191  0.29837513380391706  1.0000
  H   H33       1.0  0.452834151427594  0.1388665028330404  0.7883210611292537  1.0000
  H   H34       1.0  0.5471658486224673  0.8611334970216763  0.21167893885400946  1.0000
  H   H35       1.0  0.6865090644690984  0.5835879299976381  0.9926326293137029  1.0000
  H   H36       1.0  0.3134909355809629  0.4164120698570786  0.007367370669560291  1.0000
  H   H37       1.0  0.6148365691472863  0.44557557026058364  0.9761636970752857  1.0000
  H   H38       1.0  0.38516343126119723  0.5544244303649613  0.02383630294881001  1.0000
  H   H39       1.0  0.801512298975273  0.5065598268918401  0.015356277644930166  1.0000
  H   H40       1.0  0.19848770107478825  0.49344017296287657  0.9846437223383331  1.0000
  H   H41       1.0  0.006666076555933622  0.8515833545451934  0.3128480789491431  1.0000
  H   H42       1.0  0.9933339234941277  0.14841664530952328  0.6871519210341202  1.0000
  H   H43       1.0  0.11079593893457729  0.9415919463093466  0.3941089192515141  1.0000
  H   H44       1.0  0.8892040611154841  0.05840805354536998  0.6058910807317491  1.0000
  H   H45       1.0  0.9234372165699206  0.9264996564236162  0.36978466187853626  1.0000
  H   H46       1.0  0.07656278348014076  0.07350034343110051  0.630215338104727  1.0000
  H   H47       1.0  0.3133368097748614  0.8342692169041886  0.12751509456026924  1.0000
  H   H48       1.0  0.6866631902752  0.16573078295052793  0.8724849054229941  1.0000
  H   H49       1.0  0.13349679030817113  0.8420115772361245  0.11401738098137344  1.0000
  H   H50       1.0  0.8665032101003123  0.15798842338942037  0.8859826190427225  1.0000
  H   H51       1.0  0.2859216815851418  0.9472826409096007  0.08767080405597207  1.0000
  H   H52       1.0  0.7140783188233418  0.052717359715944156  0.9123291959681238  1.0000
  H   H53       1.0  0.4151927576910635  0.019681979078401288  0.5314864479019789  1.0000
  H   H54       1.0  0.5848072423589978  0.9803180207763154  0.4685135520812844  1.0000
  H   H55       1.0  0.4326470987365022  0.1492933635711446  0.5600933505103851  1.0000
  H   H56       1.0  0.5673529013135591  0.850706636283572  0.4399066494728781  1.0000
  H   H57       1.0  0.2675152128636644  0.049166968907048574  0.5706522481944187  1.0000
  H   H58       1.0  0.7324847871863969  0.950833030947668  0.42934775178884454  1.0000
  H   H59       1.0  0.057799418141116256  0.6871078298417049  0.48746381797614025  1.0000
  H   H60       1.0  0.9422005819089451  0.31289217001301184  0.512536182007123  1.0000
  H   H61       1.0  0.18716889369650117  0.7997017684774861  0.4571712682894867  1.0000
  H   H62       1.0  0.8128311063535603  0.20029823137723063  0.5428287316937767  1.0000
  H   H63       1.0  0.07717386325192961  0.7055479190082006  0.38024937111225665  1.0000
  H   H64       1.0  0.9228261367981317  0.29445208084651614  0.6197506288710065  1.0000
  H   H65       1.0  0.6559281527378261  0.07893694379473394  0.734703863417909  1.0000
  H   H66       1.0  0.3440718473122352  0.9210630560599828  0.2652961365653541  1.0000
  H   H67       1.0  0.6616947374258139  0.1677607766426872  0.6562391303346617  1.0000
  H   H68       1.0  0.3383052626242475  0.8322392232120294  0.34376086964860136  1.0000
  H   H69       1.0  0.6432425887787044  0.03718829544321958  0.6286221004253769  1.0000
  H   H70       1.0  0.3567574116297791  0.9628117051823253  0.37137789959871886  1.0000
  H   H71       1.0  0.8956613377382846  0.8969389023653683  0.5271375837348627  1.0000
  H   H72       1.0  0.10433866231177674  0.10306109748934839  0.4728624162484005  1.0000
  H   H73       1.0  0.08113001922832304  0.9042043639019384  0.5437527451046803  1.0000
  H   H74       1.0  0.9188699808217382  0.0957956359527784  0.45624725487858303  1.0000
  H   H75       1.0  0.9432537256647143  0.7942457805889378  0.5721848321381223  1.0000
  H   H76       1.0  0.056746274385347045  0.20575421926577894  0.4278151678451409  1.0000
  H   H77       1.0  0.7521652099331186  0.6579502722983234  0.15123972603342714  1.0000
  H   H78       1.0  0.24783479011694273  0.34204972755639335  0.8487602739498361  1.0000
  H   H79       1.0  0.3525121192021181  0.9470406480432422  0.9426914383103037  1.0000
  H   H80       1.0  0.6474878808479433  0.05295935181147453  0.05730856167295956  1.0000
  H   H81       1.0  0.1323290017408998  0.01045504076381089  0.23818983075864247  1.0000
  H   H82       1.0  0.8676709983091615  0.9895449590909058  0.7618101692246207  1.0000
  H   H83       1.0  0.2110452139616037  0.09238168058807363  0.15954588884314147  1.0000
  H   H84       1.0  0.7889547860884576  0.907618319266643  0.8404541111401218  1.0000
  H   H85       1.0  0.29040370904019797  0.12674552234645695  0.34600533773446535  1.0000
  H   H86       1.0  0.7095962913682856  0.873254478279088  0.6539946622896304  1.0000
  H   H87       1.0  0.40187032645307724  0.17042185681898014  0.2635541434129264  1.0000
  H   H88       1.0  0.5981296725692532  0.8295781430392761  0.7364458565221146  1.0000
  H   H89       1.0  0.9843818602880186  0.12825522855095697  0.16323416857833292  1.0000
  H   H90       1.0  0.015618139765300774  0.8717447713012385  0.8367658320238237  1.0000
  H   H91       1.0  0.9857845424295734  0.11853678617717657  0.2727687176426006  1.0000
  H   H92       1.0  0.014215457620487815  0.8814632136775401  0.7272312823406627  1.0000
  H   H93       1.0  0.18453014280110439  0.2902763243286092  0.17848315922754374  1.0000
  H   H94       1.0  0.8154698576073791  0.7097236762969356  0.8215168407965521  1.0000
  H   H95       1.0  0.09184377374636372  0.3050456739333887  0.2665792360823623  1.0000
  H   H96       1.0  0.9081562263069555  0.6949543259188068  0.7334207645197943  1.0000
  C   C1        1.0  0.22272180078260384  0.5920274309775785  0.21963854926607884  1.0000
  C   C2        1.0  0.7772781992674576  0.4079725688771383  0.7803614507171844  1.0000
  C   C3        1.0  0.1892408343511765  0.13309754168746157  0.9548434644700284  1.0000
  C   C4        1.0  0.810759166057307  0.8669024589380834  0.045156535554067394  1.0000
  C   C5        1.0  0.27614733123818896  0.7417538063699861  0.7346156922660554  1.0000
  C   C6        1.0  0.7238526688118724  0.2582461934847306  0.2653843077172079  1.0000
  C   C7        1.0  0.5579764508953559  0.6355944676126066  0.4332425131031383  1.0000
  C   C8        1.0  0.4420235491547056  0.36440553224211025  0.5667574868801248  1.0000
  C   C9        1.0  0.2827574114657426  0.8671666674134345  0.9400962833550299  1.0000
  C   C10       1.0  0.7172425885843187  0.13283333244128212  0.05990371662823343  1.0000
  C   C11       1.0  0.7902025887588179  0.6704182946565218  0.3327445708957219  1.0000
  C   C12       1.0  0.2097974112912436  0.3295817051981951  0.6672554290875413  1.0000
  C   C13       1.0  0.5512341914390593  0.4382610656823358  0.21412849535435674  1.0000
  C   C14       1.0  0.44876580861100207  0.561738934172381  0.7858715046289065  1.0000
  C   C15       1.0  0.5379091130458167  0.5818060969144153  0.35587169970186827  1.0000
  C   C16       1.0  0.46209088736266674  0.4181939037111294  0.6441283003222276  1.0000
  C   C17       1.0  0.37472847434155193  0.866525967236857  0.6349882042855713  1.0000
  C   C18       1.0  0.6252715257085093  0.13347403261785967  0.3650117956976918  1.0000
  C   C19       1.0  0.20076147139710346  0.512614011336072  0.5243405215490389  1.0000
  C   C20       1.0  0.79923852901138  0.4873859892894728  0.4756594784750569  1.0000
  C   C21       1.0  0.696681932034975  0.7059310160522473  0.45955551487147933  1.0000
  C   C22       1.0  0.30331806801508643  0.2940689838024695  0.5404444851117839  1.0000
  C   C23       1.0  0.32220248566169096  0.7636879836564434  0.6554501633466567  1.0000
  C   C24       1.0  0.6777975133606395  0.23631201620181277  0.34454983658838423  1.0000
  C   C25       1.0  0.337722202040674  0.9256443696485697  0.770254578637212  1.0000
  C   C26       1.0  0.6622777980093874  0.07435563020614701  0.22974542134605114  1.0000
  C   C27       1.0  0.43474551966730773  0.6185952490674455  0.4846943618218063  1.0000
  C   C28       1.0  0.5652544803860114  0.38140475078474995  0.5153056387803502  1.0000
  C   C29       1.0  0.38257170609481783  0.9484082136093099  0.6910993423853983  1.0000
  C   C30       1.0  0.6174282939552436  0.05159178624540669  0.30890065759786495  1.0000
  C   C31       1.0  0.8127531941264117  0.7249871679823904  0.4102920350490086  1.0000
  C   C32       1.0  0.1872468059236497  0.27501283187232634  0.5897079649342547  1.0000
  C   C33       1.0  0.6870747132285624  0.5792444589380775  0.1588084237792172  1.0000
  C   C34       1.0  0.31292528682149895  0.4207555409166392  0.841191576204046  1.0000
  C   C35       1.0  0.2026949793838459  0.5872415729857354  0.5853002536363853  1.0000
  C   C36       1.0  0.7973050206662156  0.41275842686898134  0.41469974634687806  1.0000
  C   C37       1.0  0.28659017439889084  0.8230772078274378  0.7911525451778745  1.0000
  C   C38       1.0  0.7134098256511705  0.1769227920272788  0.2088474548053888  1.0000
  C   C39       1.0  0.6538198624561244  0.5996806480011931  0.3073022732240387  1.0000
  C   C40       1.0  0.34618013759393684  0.4003193518535235  0.6926977267592246  1.0000
  C   C41       1.0  0.4442796705652523  0.05954126242602101  0.6665269498784182  1.0000
  C   C42       1.0  0.555720329484809  0.9404587374286957  0.33347305010484496  1.0000
  C   C43       1.0  0.31937448648768896  0.679994593898864  0.5951033164722804  1.0000
  C   C44       1.0  0.6806255135623724  0.3200054059558527  0.4048966835109828  1.0000
  C   C45       1.0  0.4339096168916911  0.6940158453180438  0.5449715671655344  1.0000
  C   C46       1.0  0.5660903821306393  0.3059841545402123  0.45502843276950655  1.0000
  C   C47       1.0  0.15552091125966291  0.7054989645788745  0.8956745709528455  1.0000
  C   C48       1.0  0.8444790887903985  0.29450103527584226  0.10432542903041778  1.0000
  C   C49       1.0  0.31477713804060564  0.5274347797854881  0.4745678715811546  1.0000
  C   C50       1.0  0.6852228623678779  0.47256522084005664  0.5254321284429412  1.0000
  C   C51       1.0  0.14146140173708954  0.7167583064078938  0.9784375550288092  1.0000
  C   C52       1.0  0.8585385983129719  0.2832416934468229  0.021562444954453967  1.0000
  C   C53       1.0  0.964148437836468  0.8013104365165795  0.43837934131454775  1.0000
  C   C54       1.0  0.03585156221359342  0.198689563338137  0.5616206586687155  1.0000
  C   C55       1.0  0.5627557090530809  0.413208942049965  0.13310460037414146  1.0000
  C   C56       1.0  0.43724429099698037  0.5867910578047516  0.8668953996091218  1.0000
  C   C57       1.0  0.40408085325934257  0.135097079917592  0.7241771924112987  1.0000
  C   C58       1.0  0.5959191467907189  0.8649029199371246  0.27582280757196437  1.0000
  C   C59       1.0  0.6907012463263351  0.5100917466292944  0.01518546606928017  1.0000
  C   C60       1.0  0.3092987537237262  0.48990825322542236  0.984814533913983  1.0000
  C   C61       1.0  0.003041587094042655  0.8852129955215453  0.3748911241737257  1.0000
  C   C62       1.0  0.9969584129560187  0.1147870043331714  0.6251088758095374  1.0000
  C   C63       1.0  0.23934208360852283  0.8635280158519941  0.08902324921378255  1.0000
  C   C64       1.0  0.7606579164415386  0.13647198400272262  0.9109767507694808  1.0000
  C   C65       1.0  0.38652036270251855  0.06938910716910661  0.5768475210700821  1.0000
  C   C66       1.0  0.6134796373475428  0.9306108926856101  0.42315247891318114  1.0000
  C   C67       1.0  0.07750710459271049  0.7447253036706107  0.4405412022005429  1.0000
  C   C68       1.0  0.9224928954573508  0.255274696184106  0.5594587977827205  1.0000
  C   C69       1.0  0.6113082324192618  0.08768416639268235  0.6718074946533752  1.0000
  C   C70       1.0  0.3886917679892217  0.9123158342328626  0.32819250537072064  1.0000
  C   C71       1.0  0.970447171824838  0.8518737244611648  0.5252375058138794  1.0000
  C   C72       1.0  0.02955282719749243  0.14812627539709128  0.4747624941211615  1.0000
  C   C73       1.0  0.17152583794046533  0.09081868573317639  0.22127682986166344  1.0000
  C   C74       1.0  0.8284741624680182  0.9091813148923685  0.7787231701624323  1.0000
  C   C75       1.0  0.2933804080239337  0.1588418458832745  0.28418780405711347  1.0000
  C   C76       1.0  0.7066195920261276  0.8411581539714422  0.7158121959261496  1.0000
  C   C77       1.0  0.054840660794214506  0.14351120421559113  0.2218633974522956  1.0000
  C   C78       1.0  0.9451593382281158  0.856488795642665  0.7781366024827453  1.0000
  C   C79       1.0  0.14690791219876004  0.25659688759886495  0.2370799048086158  1.0000
  C   C80       1.0  0.8530920882097236  0.7434031130266798  0.76292009521548  1.0000
  N   N1        1.0  0.24374568379659897  0.8002639207189062  0.8726604096784802  1.0000
  N   N2        1.0  0.7562543162534624  0.19973607913581054  0.12733959030478306  1.0000
  N   N3        1.0  0.6305894032715701  0.5421868858653364  0.2290826701311924  1.0000
  N   N4        1.0  0.36941059677849125  0.45781311398938035  0.7709173298520708  1.0000
  N   N5        1.0  0.6471102099668593  0.5019314723487839  0.09987881378413614  1.0000
  N   N6        1.0  0.352889790083202  0.49806852750593283  0.9001211861991272  1.0000
  N   N7        1.0  0.2206677829452377  0.817830565689737  0.004411236741554413  1.0000
  N   N8        1.0  0.7793322171048236  0.18216943416497974  0.9955887632417088  1.0000
  O   O1        1.0  0.9459917683789533  0.5004091811941439  0.2347664050452811  1.0000
  O   O2        1.0  0.054008231671108  0.49959081866057276  0.765233594937982  1.0000
  O   O3        1.0  0.022186068735764463  0.6781954591467644  0.18896638716216344  1.0000
  O   O4        1.0  0.9778139313142971  0.3218045407079524  0.8110336128210998  1.0000
  O   O5        1.0  0.022545583098116915  0.5340143584649766  0.09428989019452526  1.0000
  O   O6        1.0  0.9774544173103666  0.46598564216056837  0.9057101098295706  1.0000
  O   O7        1.0  0.4355304268761281  0.10318312057601041  0.9341233830716613  1.0000
  O   O8        1.0  0.5644695735323555  0.8968168800495344  0.06587661695243456  1.0000
  O   O9        1.0  0.43580424508121823  0.2822967132949486  0.9520530071083285  1.0000
  O   O10       1.0  0.5641957549688431  0.7177032865597681  0.047946992874934674  1.0000
  O   O11       1.0  0.4071803738296146  0.17261074796595346  0.0714343385339647  1.0000
  O   O12       1.0  0.5928196262204468  0.8273892518887632  0.9285656614492985  1.0000
  O   O13       1.0  0.2706005677545477  0.25787084634522267  0.2933618477476793  1.0000
  O   O14       1.0  0.7293994322955136  0.742129153509494  0.7066381522355839  1.0000
  F   F1        1.0  0.25175365246962667  0.6321097667126433  0.29953578087352384  1.0000
  F   F2        1.0  0.7482463475804346  0.3678902331420734  0.7004642191097394  1.0000
  F   F3        1.0  0.3183574651967524  0.6562437074827022  0.17290261910864277  1.0000
  F   F4        1.0  0.6816425348533091  0.3437562923720145  0.8270973808746204  1.0000
  F   F5        1.0  0.24860908441738672  0.5000571122004741  0.21745234423603882  1.0000
  F   F6        1.0  0.7513909146049437  0.49994288765778205  0.7825476556990021  1.0000
  F   F7        1.0  0.15339721596964975  0.1427192528741083  0.8729273047679296  1.0000
  F   F8        1.0  0.8466027840804116  0.8572807469806083  0.12707269521533363  1.0000
  F   F9        1.0  0.12402520936696998  0.18774125622343507  0.00033222871615333873  1.0000
  F   F10       1.0  0.8759747900137826  0.8122587444056493  0.9996677712597202  1.0000
  F   F11       1.0  0.1312958175255556  0.03200882734331781  0.9701629823946287  1.0000
  F   F12       1.0  0.8687041825245058  0.9679911725113988  0.029837017588634437  1.0000
  S   S1        1.0  0.03112860428609106  0.5742315117533522  0.1800667429587854  1.0000
  S   S2        1.0  0.9688713957639703  0.4257684881013646  0.8199332570244778  1.0000
  S   S3        1.0  0.3904656972933223  0.17843113978977324  0.9813697820599084  1.0000
  S   S4        1.0  0.6095343027567391  0.8215688600649435  0.018630217923354862  1.0000
