data_image0
_chemical_formula_structural       H64C68O16S4
_chemical_formula_sum              "H64 C68 O16 S4"
_cell_length_a       5.937348944789376
_cell_length_b       11.217895676765105
_cell_length_c       21.997277894573298
_cell_angle_alpha    90.0
_cell_angle_beta     90.04498489082263
_cell_angle_gamma    90.0

_space_group_name_H-M_alt    "P 1"
_space_group_IT_number       1

loop_
  _space_group_symop_operation_xyz
  'x, y, z'

loop_
  _atom_site_type_symbol
  _atom_site_label
  _atom_site_symmetry_multiplicity
  _atom_site_fract_x
  _atom_site_fract_y
  _atom_site_fract_z
  _atom_site_occupancy
  H   H1        1.0  0.2366662562049241  0.6578987808993634  0.929651805304875  1.0000
  H   H2        1.0  0.26333374417375505  0.15789878075517869  0.5703481945037162  1.0000
  H   H3        1.0  0.7633337452496911  0.3421012193890059  0.07034819452548932  1.0000
  H   H4        1.0  0.7366662555966202  0.8421012195331906  0.42965180532444025  1.0000
  H   H5        1.0  0.4533544011394678  0.1308874865935112  0.10768232258766605  1.0000
  H   H6        1.0  0.046645599591268634  0.6308874867376958  0.39231767710021787  1.0000
  H   H7        1.0  0.5466456003151474  0.8691125128034253  0.8923176772426982  1.0000
  H   H8        1.0  0.9533544001791067  0.36911251355067337  0.6076823227279385  1.0000
  H   H9        1.0  0.6485837087672154  0.8268697202463946  0.0925815681685957  1.0000
  H   H10       1.0  0.8514162903879983  0.3268697201022099  0.4074184321337225  1.0000
  H   H11       1.0  0.3514162909963022  0.17313027915054194  0.9074184321141573  1.0000
  H   H12       1.0  0.1485837093755192  0.6731302792947266  0.5925815681490305  1.0000
  H   H13       1.0  0.7143161614436744  0.6763537769133483  0.009624374076415481  1.0000
  H   H14       1.0  0.7856838393957792  0.17635377676916372  0.49037562622811054  1.0000
  H   H15       1.0  0.28568383831984323  0.32364622337502086  0.9903756262063373  1.0000
  H   H16       1.0  0.2143161603677383  0.8236462235192056  0.5096243740546422  1.0000
  H   H17       1.0  0.37266670217857806  0.8278974932202402  0.978220776320154  1.0000
  H   H18       1.0  0.12733329651586114  0.32789749307605565  0.5217792234862292  1.0000
  H   H19       1.0  0.6273332975917971  0.172102507068129  0.021779223508002352  1.0000
  H   H20       1.0  0.872666703254514  0.6721025063208808  0.4782207763419272  1.0000
  H   H21       1.0  0.47196618364610204  0.10759507529562433  0.21860080120178702  1.0000
  H   H22       1.0  0.028033815393536853  0.607595075439809  0.2813991989384855  1.0000
  H   H23       1.0  0.5280338161174156  0.8924049241013122  0.7813991990809658  1.0000
  H   H24       1.0  0.9719661843768383  0.39240492484856027  0.7186008008896709  1.0000
  H   H25       1.0  0.4924634304990355  0.24546088939864702  0.3070603134001544  1.0000
  H   H26       1.0  0.007536570224843195  0.7454608895428317  0.19293968674232603  1.0000
  H   H27       1.0  0.5075365692713397  0.7545391108897221  0.6929396864280021  1.0000
  H   H28       1.0  0.9924634295386745  0.2545391107455376  0.807060313540427  1.0000
  H   H29       1.0  0.1591558138079633  0.3726386793432409  0.3332410472254694  1.0000
  H   H30       1.0  0.3408441869227731  0.8726386794874255  0.16675895246241454  1.0000
  H   H31       1.0  0.8408441859624121  0.6273613209451283  0.666758952602687  1.0000
  H   H32       1.0  0.6591558128476022  0.12736132080094373  0.8332410473657418  1.0000
  H   H33       1.0  0.8163240432857961  0.36186653602136193  0.2722244512088517  1.0000
  H   H34       1.0  0.6836759558762753  0.8618665361655465  0.22777554863886998  1.0000
  H   H35       1.0  0.18367595648457904  0.6381334633755745  0.7277755486193048  1.0000
  H   H36       1.0  0.31632404389410007  0.13813346323138986  0.7722244511892864  1.0000
  H   H37       1.0  0.796000519509111  0.22747437251403071  0.18122060308485582  1.0000
  H   H38       1.0  0.7039994813303426  0.7274743726582154  0.3187793972196702  1.0000
  H   H39       1.0  0.20399948193864653  0.7725256268829057  0.8187793972001051  1.0000
  H   H40       1.0  0.29600051843317493  0.27252562763015387  0.6812206030630826  1.0000
  H   H41       1.0  0.3394005607146796  0.0007723623262022091  0.4386080875318342  1.0000
  H   H42       1.0  0.16059944000919915  0.5007723624703868  0.061391912610646124  1.0000
  H   H43       1.0  0.6605994390556956  0.9992276379621671  0.5613919122963221  1.0000
  H   H44       1.0  0.8394005597543185  0.4992276378179824  0.9386080876721067  1.0000
  H   H45       1.0  0.06461786024537741  0.06828278957759819  0.449151819976404  1.0000
  H   H46       1.0  0.4353821388011191  0.5682827897217828  0.05084817970927198  1.0000
  H   H47       1.0  0.9353821395249977  0.9317172107107711  0.5508481798517524  1.0000
  H   H48       1.0  0.5646178609692561  0.4317172105665864  0.9491518201188844  1.0000
  H   H49       1.0  0.2499807616454095  0.12128092105705257  0.39010406504634737  1.0000
  H   H50       1.0  0.2500192373942293  0.6212809212012371  0.10989593509392512  1.0000
  H   H51       1.0  0.7500192381181081  0.8787190783398838  0.6098959352364055  1.0000
  H   H52       1.0  0.749980762376146  0.3787190781956993  0.8901040647342311  1.0000
  H   H53       1.0  0.7561119381350065  0.9689787802639421  0.3046707916640597  1.0000
  H   H54       1.0  0.7438880627113047  0.46897878011975747  0.19532920818586988  1.0000
  H   H55       1.0  0.2438880616353686  0.031021220024427112  0.6953292081640967  1.0000
  H   H56       1.0  0.2561119370590706  0.5310212201686118  0.8046707916422865  1.0000
  H   H57       1.0  0.9240521942903157  0.10114978715216659  0.31245296949596607  1.0000
  H   H58       1.0  0.5759478048717556  0.6011497872963512  0.18754703035175566  1.0000
  H   H59       1.0  0.07594780548005946  0.8988502122447699  0.6875470303321903  1.0000
  H   H60       1.0  0.42405219489861956  0.3988502121005852  0.8124529694764008  1.0000
  H   H61       1.0  0.7474638004379137  0.05276648108129796  0.37476620432988395  1.0000
  H   H62       1.0  0.7525361987241577  0.5527664812254826  0.1252337955178377  1.0000
  H   H63       1.0  0.25253619933246146  0.9472335183156384  0.6252337954982724  1.0000
  H   H64       1.0  0.2474638010462176  0.44723351817145385  0.8747662043103187  1.0000
  C   C1        1.0  0.30927062712074815  0.07173819254415331  0.10373661171819039  1.0000
  C   C2        1.0  0.19072937360313064  0.5717381926883379  0.39626338842429004  1.0000
  C   C3        1.0  0.6907293726427693  0.928261807744216  0.8962633885645626  1.0000
  C   C4        1.0  0.8092706261672448  0.4282618076000313  0.6037366114038665  1.0000
  C   C5        1.0  0.12700475923825422  0.07763324112594489  0.14108748616386355  1.0000
  C   C6        1.0  0.3729952414856246  0.5776332412701295  0.35891251397861684  1.0000
  C   C7        1.0  0.8729952422095033  0.9223667582709916  0.8589125141210974  1.0000
  C   C8        1.0  0.6270047582847507  0.4223667590182397  0.6410874858495396  1.0000
  C   C9        1.0  0.9345818785138823  0.9991060661416317  0.12973237152401676  1.0000
  C   C10       1.0  0.5654181223255715  0.49910606599744706  0.37026762878050934  1.0000
  C   C11       1.0  0.06541812124963542  0.0008939341467375621  0.8702676287587361  1.0000
  C   C12       1.0  0.43458187743794613  0.5008939342909221  0.6297323715022436  1.0000
  C   C13       1.0  0.805225433685028  0.8249606830600035  0.06689651007256438  1.0000
  C   C14       1.0  0.6947745671612833  0.3249606829158188  0.43310348977736524  1.0000
  C   C15       1.0  0.19477456608534724  0.17503931722836577  0.933103489755592  1.0000
  C   C16       1.0  0.30522543260909196  0.6750393164811176  0.5668965100507912  1.0000
  C   C17       1.0  0.8423097407040162  0.7414051609720771  0.022014541596290644  1.0000
  C   C18       1.0  0.6576902601422951  0.2414051608278925  0.4779854582536389  1.0000
  C   C19       1.0  0.15769025906635906  0.2585948393162921  0.9779854582318659  1.0000
  C   C20       1.0  0.34230973962808015  0.7585948394604768  0.5220145415745175  1.0000
  C   C21       1.0  0.0486424323740707  0.7403249904704832  0.9897247273548521  1.0000
  C   C22       1.0  0.4513575663135108  0.24032499032629856  0.5102752729061278  1.0000
  C   C23       1.0  0.9513575673894469  0.25967500892645323  0.010275272927900968  1.0000
  C   C24       1.0  0.5486424334500067  0.7596750090706379  0.4897247273766251  1.0000
  C   C25       1.0  0.21288000907861487  0.8262948468311108  0.0023157566935656675  1.0000
  C   C26       1.0  0.28711998996788163  0.3262948475783588  0.4976842429921104  1.0000
  C   C27       1.0  0.7871199906917605  0.17370515256582578  0.9976842431345907  1.0000
  C   C28       1.0  0.7128800098024937  0.6737051527100104  0.502315756836046  1.0000
  C   C29       1.0  0.16927252793010905  0.9104763570902895  0.047349953286238144  1.0000
  C   C30       1.0  0.33072747280062736  0.4104763569461049  0.45265004640164574  1.0000
  C   C31       1.0  0.8307274718402662  0.0895236431980797  0.9526500465419182  1.0000
  C   C32       1.0  0.6692725269697478  0.5895236433422644  0.5473499534265107  1.0000
  C   C33       1.0  0.9685820317633643  0.9118718264769788  0.0811926080867586  1.0000
  C   C34       1.0  0.531417969082947  0.4118718263327942  0.41880739176317094  1.0000
  C   C35       1.0  0.03141796969125078  0.08812817291995761  0.9188073917436057  1.0000
  C   C36       1.0  0.4685820306874283  0.5881281730641422  0.5811926080649854  1.0000
  C   C37       1.0  0.1333399732103226  0.15933611984840956  0.19359147881641195  1.0000
  C   C38       1.0  0.36666002582931617  0.6593361199925942  0.3064085213238606  1.0000
  C   C39       1.0  0.8666600265600527  0.8406638804399597  0.8064085210117444  1.0000
  C   C40       1.0  0.6333399739342013  0.34066388029577505  0.6935914789588924  1.0000
  C   C41       1.0  0.32886052563158924  0.16472726732763443  0.22974490136154635  1.0000
  C   C42       1.0  0.17113947341490723  0.6647272674718191  0.2702550983241297  1.0000
  C   C43       1.0  0.671139474138786  0.8352727329607349  0.7702550984666099  1.0000
  C   C44       1.0  0.828860526355468  0.3352727328165502  0.7297449015040268  1.0000
  C   C45       1.0  0.33939083703571776  0.24147395804461103  0.2796848941819585  1.0000
  C   C46       1.0  0.16060916200392109  0.7414739581887957  0.220315105958314  1.0000
  C   C47       1.0  0.6606091627277998  0.7585260422437582  0.7203151061007944  1.0000
  C   C48       1.0  0.8393908377664542  0.2585260420995736  0.7796848938698424  1.0000
  C   C49       1.0  0.15401277355726062  0.3122395653272881  0.2945685514162695  1.0000
  C   C50       1.0  0.34598722548237826  0.8122395645800398  0.20543144872400299  1.0000
  C   C51       1.0  0.8459872262131146  0.6877604349610811  0.705431448411887  1.0000
  C   C52       1.0  0.6540127742811394  0.18776043481689655  0.79456855155875  1.0000
  C   C53       1.0  0.9588339355060986  0.3064299623609327  0.25921195258182234  1.0000
  C   C54       1.0  0.5411660653333551  0.8064299625051173  0.2407880477227037  1.0000
  C   C55       1.0  0.04116606425741906  0.6935700379274365  0.7407880477009305  1.0000
  C   C56       1.0  0.45883393611440243  0.19357003778325196  0.759211952562257  1.0000
  C   C57       1.0  0.947950281749925  0.23114610036627953  0.20888064541586146  1.0000
  C   C58       1.0  0.5520497174121464  0.7311461005104642  0.2911193544318602  1.0000
  C   C59       1.0  0.05204971802045018  0.7688538999220897  0.791119354412295  1.0000
  C   C60       1.0  0.4479502823582289  0.2688538997779051  0.7088806453962962  1.0000
  C   C61       1.0  0.19528280113927793  0.0432513248456161  0.4163094918934502  1.0000
  C   C62       1.0  0.3047171979072186  0.5432513249898007  0.08369050779222585  1.0000
  C   C63       1.0  0.8047171986310974  0.9567486745513204  0.5836905079347062  1.0000
  C   C64       1.0  0.6952828018631567  0.45674867440713574  0.9163094920359306  1.0000
  C   C65       1.0  0.8526780296129438  0.024105332033001955  0.33641404329703  1.0000
  C   C66       1.0  0.6473219712265099  0.5241053321771866  0.16358595700749598  1.0000
  C   C67       1.0  0.1473219701505738  0.9758946673639345  0.6635859569857229  1.0000
  C   C68       1.0  0.3526780285370077  0.4758946681111827  0.8364140432752569  1.0000
  O   O1        1.0  0.3350346406139517  0.9934817777886316  0.057557926399725574  1.0000
  O   O2        1.0  0.1649653584256871  0.49348177764444695  0.44244207374054695  1.0000
  O   O3        1.0  0.6649653591495659  0.006518222499737649  0.9424420738830274  1.0000
  O   O4        1.0  0.8350346413446881  0.5065182226439223  0.5575579260876095  1.0000
  O   O5        1.0  0.756389568718753  0.0034573186556129632  0.16002151895009809  1.0000
  O   O6        1.0  0.7436104304433184  0.5034573187997975  0.3399784808976236  1.0000
  O   O7        1.0  0.24361043105162228  0.9965426816327562  0.8399784808780584  1.0000
  O   O8        1.0  0.2563895693270568  0.49654268148857167  0.6600215189305328  1.0000
  O   O9        1.0  0.07874883574568971  0.6543802734058632  0.9479021184005927  1.0000
  O   O10       1.0  0.4212511646329894  0.15438027326167864  0.5520978814079985  1.0000
  O   O11       1.0  0.9212511640246855  0.345619726882506  0.05209788142756375  1.0000
  O   O12       1.0  0.5787488351373858  0.8456197261352578  0.4479021184201579  1.0000
  O   O13       1.0  0.9781869689265472  0.8373275176248267  0.40313909195161907  1.0000
  O   O14       1.0  0.5218130319129064  0.33732751837207486  0.096860908352907  1.0000
  O   O15       1.0  0.021813030836970358  0.16267248177210974  0.5968609083311338  1.0000
  O   O16       1.0  0.4781869678506112  0.6626724819162944  0.9031390919298459  1.0000
  S   S1        1.0  0.08306569255852857  0.9352791247409364  0.3639892861469087  1.0000
  S   S2        1.0  0.41693430816535026  0.4352791245967517  0.1360107139955718  1.0000
  S   S3        1.0  0.9169343072118468  0.06472087554743292  0.6360107136812477  1.0000
  S   S4        1.0  0.5830656915981673  0.5647208748001847  0.863989286287181  1.0000
