data_image0
_chemical_formula_structural       H36C32N8O8
_chemical_formula_sum              "H36 C32 N8 O8"
_cell_length_a       7.289066073793608
_cell_length_b       10.553879962224471
_cell_length_c       11.123331386565468
_cell_angle_alpha    63.11841079060022
_cell_angle_beta     86.32925542750559
_cell_angle_gamma    86.61524418980258

_space_group_name_H-M_alt    "P 1"
_space_group_IT_number       1

loop_
  _space_group_symop_operation_xyz
  'x, y, z'

loop_
  _atom_site_type_symbol
  _atom_site_label
  _atom_site_symmetry_multiplicity
  _atom_site_fract_x
  _atom_site_fract_y
  _atom_site_fract_z
  _atom_site_occupancy
  H   H1        1.0  0.40134469593115163  0.5834258260841269  0.2913905418430895  1.0000
  H   H2        1.0  0.5986553042016096  0.41657417309194533  0.7086094579060326  1.0000
  H   H3        1.0  0.3231361195812265  0.6108673970632653  0.7340893621534667  1.0000
  H   H4        1.0  0.6768638805515346  0.38913260211280687  0.26591063759565564  1.0000
  H   H5        1.0  0.5904692577653945  0.918968598447587  0.946620702286405  1.0000
  H   H6        1.0  0.4095307423161596  0.0810314017935736  0.05337929790510707  1.0000
  H   H7        1.0  0.7038516495740197  0.7495646582441503  0.9967903113816856  1.0000
  H   H8        1.0  0.29614835050753446  0.2504353419970106  0.003209688809826185  1.0000
  H   H9        1.0  0.5963023818531284  0.5977585234688033  0.8677223688426696  1.0000
  H   H10       1.0  0.4036976182284256  0.40224147677235755  0.13227763134884224  1.0000
  H   H11       1.0  0.21247056173914824  0.9934952306190581  0.9317218487861251  1.0000
  H   H12       1.0  0.7875294383363464  0.006504769619895967  0.06827815050758766  1.0000
  H   H13       1.0  0.904128489006382  0.05878052352671066  0.8344009296118466  1.0000
  H   H14       1.0  0.0958715110751721  0.9412194767144502  0.16559907057966533  1.0000
  H   H15       1.0  0.7892399517121594  0.9437075844871894  0.7040182060837745  1.0000
  H   H16       1.0  0.2107600483693946  0.0562924157539715  0.2959817941077374  1.0000
  H   H17       1.0  0.9812401088046515  0.7590640443791975  0.6671651663863107  1.0000
  H   H18       1.0  0.018759891276902602  0.24093595586196334  0.3328348338052012  1.0000
  H   H19       1.0  0.3051315285199057  0.7825897709023187  0.3330445325189354  1.0000
  H   H20       1.0  0.6948684715616484  0.21741022933884213  0.6669554676725764  1.0000
  H   H21       1.0  0.18784650495318286  0.800525709409508  0.46948439116155444  1.0000
  H   H22       1.0  0.8121534951283713  0.199474290831653  0.5305156090299575  1.0000
  H   H23       1.0  0.18302229244436286  0.19716049055049126  0.6846609742897692  1.0000
  H   H24       1.0  0.8169777076944579  0.802839508627788  0.3153390263571522  1.0000
  H   H25       1.0  0.08561400721524792  0.4829781368786798  0.8877883728675994  1.0000
  H   H26       1.0  0.9143859928663062  0.517021863362481  0.11221162732391254  1.0000
  H   H27       1.0  0.9046961864981703  0.35760855931424596  0.9598797916674381  1.0000
  H   H28       1.0  0.09530381358338391  0.642391440926915  0.04012020852407372  1.0000
  H   H29       1.0  0.8804702821134514  0.509456939302859  0.7977813125482524  1.0000
  H   H30       1.0  0.11952971802536923  0.4905430598754202  0.20221868809866908  1.0000
  H   H31       1.0  0.43253894353842615  0.11754531349909152  0.585668527936821  1.0000
  H   H32       1.0  0.5674610565431281  0.8824546867420694  0.4143314722546909  1.0000
  H   H33       1.0  0.42064773003924305  0.12793117867664958  0.42003575107618535  1.0000
  H   H34       1.0  0.579352270042311  0.8720688215645114  0.5799642491153265  1.0000
  H   H35       1.0  0.2133465786746684  0.11657709244459523  0.5212473494466117  1.0000
  H   H36       1.0  0.7866534214008263  0.8834229077943586  0.47875264984710103  1.0000
  C   C1        1.0  0.4777844863112836  0.7544920682679784  0.12717178572854054  1.0000
  C   C2        1.0  0.5222155137702705  0.24550793197318244  0.8728282144629714  1.0000
  C   C3        1.0  0.5692733105776648  0.8045402362703654  0.9878859822339119  1.0000
  C   C4        1.0  0.43072668949782994  0.19545976396858852  0.01211401705980071  1.0000
  C   C5        1.0  0.45156456768804115  0.7748350508667855  0.8985965599382391  1.0000
  C   C6        1.0  0.54843543244472  0.22516494830928657  0.1014034398108832  1.0000
  C   C7        1.0  0.4820157652187999  0.6732363842388175  0.8528069840834318  1.0000
  C   C8        1.0  0.5179842349200208  0.3267636149394617  0.14719301656348963  1.0000
  C   C9        1.0  0.20652124056517931  0.7765604980849217  0.7764554573130766  1.0000
  C   C10       1.0  0.7934787595103153  0.22343950215403222  0.22354454198063603  1.0000
  C   C11       1.0  0.27525018855753336  0.8418598061144035  0.8518063851081086  1.0000
  C   C12       1.0  0.7247498115240207  0.15814019412675737  0.14819361508340329  1.0000
  C   C13       1.0  0.16465374864579563  0.9447362116790657  0.8720907750794282  1.0000
  C   C14       1.0  0.8353462514357585  0.05526378856209515  0.12790922511208358  1.0000
  C   C15       1.0  0.9917429822967385  0.9806195279609233  0.8176592120482749  1.0000
  C   C16       1.0  0.00825701778481554  0.019380472280237798  0.18234078814323706  1.0000
  C   C17       1.0  0.927233303006586  0.9158850210282347  0.74255518091901  1.0000
  C   C18       1.0  0.07276669570064954  0.08411497920461357  0.2574448193377663  1.0000
  C   C19       1.0  0.03285544512488002  0.8130382000301063  0.7209466540081657  1.0000
  C   C20       1.0  0.9671445549506146  0.18696180020884773  0.27905334528554687  1.0000
  C   C21       1.0  0.2337610462789928  0.5970892915408494  0.497809635085208  1.0000
  C   C22       1.0  0.7662389537965019  0.4029107086981046  0.5021903642085047  1.0000
  C   C23       1.0  0.13633136640851154  0.4015681865959478  0.6852574863763411  1.0000
  C   C24       1.0  0.8636686336730426  0.5984318136452131  0.3147425138151709  1.0000
  C   C25       1.0  0.20054010990106588  0.3108269753024274  0.6295562110411693  1.0000
  C   C26       1.0  0.7994598902377548  0.6891730238758518  0.3704437896057522  1.0000
  C   C27       1.0  0.2806092479507244  0.37823041860319884  0.5007672498803519  1.0000
  C   C28       1.0  0.7193907521247703  0.6217695816357551  0.4992327494133607  1.0000
  C   C29       1.0  0.9766202059562196  0.4295104283827923  0.8664440179798616  1.0000
  C   C30       1.0  0.023379794176541537  0.57048957079328  0.1335559817692606  1.0000
  C   C31       1.0  0.352698429278245  0.15827762399258816  0.4943174758644546  1.0000
  C   C32       1.0  0.6473015708605756  0.841722375185691  0.5056825247824668  1.0000
  N   N1        1.0  0.3359917716370261  0.6751587921358543  0.7789698963548852  1.0000
  N   N2        1.0  0.664008228495735  0.324841207040218  0.22103010339423704  1.0000
  N   N3        1.0  0.297733411174009  0.5199993374650844  0.43356671219858084  1.0000
  N   N4        1.0  0.7022665889075451  0.4800006627760765  0.5664332879929311  1.0000
  N   N5        1.0  0.25480571948797703  0.7385965662421854  0.4319634206204239  1.0000
  N   N6        1.0  0.7451942806508436  0.2614034329360938  0.5680365800264975  1.0000
  N   N7        1.0  0.15330587164283366  0.5422758258664273  0.6234541677402121  1.0000
  N   N8        1.0  0.846694128432661  0.45772417437252666  0.3765458315535004  1.0000
  O   O1        1.0  0.4741602419111386  0.6144663293504831  0.19760920799364246  1.0000
  O   O2        1.0  0.5258397581704156  0.3855336708906778  0.8023907921978695  1.0000
  O   O3        1.0  0.4094178307985263  0.8382819213296872  0.16916848513077576  1.0000
  O   O4        1.0  0.5905821692830279  0.16171807891147383  0.8308315150607364  1.0000
  O   O5        1.0  0.05338355496665667  0.33920323655796847  0.8086286212837798  1.0000
  O   O6        1.0  0.9466164437978455  0.660796762611998  0.19137137942840596  1.0000
  O   O7        1.0  0.3471680041753871  0.3109178222616372  0.42822332386577006  1.0000
  O   O8        1.0  0.652831995906167  0.6890821779795238  0.5717766763257419  1.0000
