data_image0
_chemical_formula_structural       H38C34N10O16
_chemical_formula_sum              "H38 C34 N10 O16"
_cell_length_a       6.835982277193658
_cell_length_b       7.361876843648267
_cell_length_c       18.462129338933458
_cell_angle_alpha    90.0
_cell_angle_beta     92.24053223820954
_cell_angle_gamma    90.0

_space_group_name_H-M_alt    "P 1"
_space_group_IT_number       1

loop_
  _space_group_symop_operation_xyz
  'x, y, z'

loop_
  _atom_site_type_symbol
  _atom_site_label
  _atom_site_symmetry_multiplicity
  _atom_site_fract_x
  _atom_site_fract_y
  _atom_site_fract_z
  _atom_site_occupancy
  H   H1        1.0  0.19076302068850096  0.3081259301365702  0.1755500363755853  1.0000
  H   H2        1.0  0.8092369795541214  0.8081259298887891  0.8244499635967929  1.0000
  H   H3        1.0  0.8143050655826751  0.13120426088537115  0.3432209360890273  1.0000
  H   H4        1.0  0.18569493465994732  0.63120426063759  0.6567790638833509  1.0000
  H   H5        1.0  0.5538736903447309  0.05658381943178054  0.2498908861579071  1.0000
  H   H6        1.0  0.4461263098978915  0.5565838191839995  0.7501091138144711  1.0000
  H   H7        1.0  0.5955254643222853  0.11565576117109518  0.05547387239070922  1.0000
  H   H8        1.0  0.4044745359203372  0.6156557609233141  0.944526127581669  1.0000
  H   H9        1.0  0.45793902212690935  0.034926645128795474  0.1248302895165527  1.0000
  H   H10       1.0  0.5420609781157131  0.5349266462393637  0.8751697104558256  1.0000
  H   H11       1.0  0.8332898618124412  0.3369482935781798  0.033770113628792564  1.0000
  H   H12       1.0  0.1667101384301812  0.836948294688748  0.9662298863435856  1.0000
  H   H13       1.0  0.9301154130747018  0.11515714239792635  0.028339818175686995  1.0000
  H   H14       1.0  0.06988458570395983  0.6151571421501453  0.9716601817739594  1.0000
  H   H15       1.0  0.08807427783096039  0.29917375511385685  0.05170311077884857  1.0000
  H   H16       1.0  0.9119257209477012  0.7991737548660757  0.9482968891707978  1.0000
  H   H17       1.0  0.7531345060383068  0.5799734226311917  0.3380741385098371  1.0000
  H   H18       1.0  0.24686549420431572  0.07997342152062348  0.6619258614625411  1.0000
  H   H19       1.0  0.5083604445079795  0.514038425305231  0.2417363622043865  1.0000
  H   H20       1.0  0.491639555734643  0.014038425553012112  0.7582636377679917  1.0000
  H   H21       1.0  0.8821035601276349  0.7454841362546177  0.08328609417859571  1.0000
  H   H22       1.0  0.11789644011498752  0.2454841365023988  0.9167139057937824  1.0000
  H   H23       1.0  0.2337959055959111  0.7824452815955327  0.30496243312005283  1.0000
  H   H24       1.0  0.7662040931827505  0.28244528184331374  0.6950375668295935  1.0000
  H   H25       1.0  0.036891606202635964  0.5468801700307764  0.4036706096425558  1.0000
  H   H26       1.0  0.9631083925760255  0.046880170278557474  0.5963293903070906  1.0000
  H   H27       1.0  0.8051542708668654  0.8143995026448789  0.4122763511202706  1.0000
  H   H28       1.0  0.19484572937575695  0.31439950289266  0.5877236488521076  1.0000
  H   H29       1.0  0.9494048403175174  0.7836044927832835  0.49336115337805025  1.0000
  H   H30       1.0  0.05059515992510508  0.28360449303106444  0.506638846594328  1.0000
  H   H31       1.0  0.009035929287850011  0.9596023595661122  0.43111832048348125  1.0000
  H   H32       1.0  0.9909640709547723  0.4596023598138933  0.5688816794888969  1.0000
  H   H33       1.0  0.4695315129996029  0.6126091220734192  0.5922503409290577  1.0000
  H   H34       1.0  0.5304684857790587  0.11260912232120035  0.4077496590205887  1.0000
  H   H35       1.0  0.5353781696620362  0.8060584910653413  0.5394306047628258  1.0000
  H   H36       1.0  0.4646218305805863  0.3060584913131224  0.4605693952095524  1.0000
  H   H37       1.0  0.6021645076539459  0.5836630252389065  0.5110172522075244  1.0000
  H   H38       1.0  0.3978354925886765  0.0836630241283383  0.4889827477648538  1.0000
  C   C1        1.0  0.7251030668389665  0.1391092926097487  0.15935245081792532  1.0000
  C   C2        1.0  0.2748969319355327  0.6391092937203169  0.8406475496733079  1.0000
  C   C3        1.0  0.9076008873422594  0.21350768878402845  0.13770954786821488  1.0000
  C   C4        1.0  0.09239911290036307  0.7135076898945966  0.8622904521041633  1.0000
  C   C5        1.0  0.05017294980396669  0.25297921162683623  0.19057618802237147  1.0000
  C   C6        1.0  0.9498270504386558  0.7529792113790552  0.8094238119500067  1.0000
  C   C7        1.0  0.01656376980182713  0.2218255119832623  0.26426763281024973  1.0000
  C   C8        1.0  0.9834362304407953  0.7218255117354813  0.7357323671621285  1.0000
  C   C9        1.0  0.8369545490611698  0.15123628167735684  0.285868823254297  1.0000
  C   C10       1.0  0.16304544971749188  0.6512362814295758  0.7141311766953494  1.0000
  C   C11       1.0  0.69391832482487  0.11039008221132744  0.234213664459486  1.0000
  C   C12       1.0  0.30608167395379166  0.6103900819635464  0.7657863354901605  1.0000
  C   C13       1.0  0.9415013551792238  0.243446001347646  0.05895345520590113  1.0000
  C   C14       1.0  0.058498645063398545  0.743446001099865  0.9410465447664771  1.0000
  C   C15       1.0  0.9676155739933677  0.6973271842260219  0.26772192461909544  1.0000
  C   C16       1.0  0.032384426249254694  0.19732718447380299  0.7322780753532827  1.0000
  C   C17       1.0  0.7843669128873786  0.6150434129995792  0.2825354504305527  1.0000
  C   C18       1.0  0.21563308735524395  0.11504341324736028  0.7174645495418255  1.0000
  C   C19       1.0  0.6453542717694962  0.5791460833358794  0.2288981664002618  1.0000
  C   C20       1.0  0.3546457284731262  0.07914608358366043  0.7711018335721164  1.0000
  C   C21       1.0  0.6816131164551585  0.6258431046663309  0.15655020439226497  1.0000
  C   C22       1.0  0.3183868837874639  0.1258431049141119  0.8434497955801132  1.0000
  C   C23       1.0  0.8549792630146973  0.7083056957817717  0.13886838503199414  1.0000
  C   C24       1.0  0.14502073722792516  0.20830569602955284  0.861131614940384  1.0000
  C   C25       1.0  0.9973647033830221  0.7441417625352683  0.19304567745285223  1.0000
  C   C26       1.0  0.0026352968596003033  0.24414176278304944  0.8069543225195259  1.0000
  C   C27       1.0  0.08814331461589377  0.687566056523648  0.3968220793711386  1.0000
  C   C28       1.0  0.9118566841627678  0.1875660567714291  0.6031779205785077  1.0000
  C   C29       1.0  0.9546574786705603  0.820027519912751  0.4359705359073944  1.0000
  C   C30       1.0  0.04534252157206222  0.32002752016053204  0.5640294640649838  1.0000
  C   C31       1.0  0.2964773925351865  0.6962320667483429  0.4295357123986258  1.0000
  C   C32       1.0  0.7035226077074359  0.1962320669961239  0.5704642875737523  1.0000
  C   C33       1.0  0.4905231042944385  0.6635655599447838  0.5376413133479564  1.0000
  C   C34       1.0  0.5094768959481839  0.16356556019256485  0.4623586866244218  1.0000
  N   N1        1.0  0.5837858525551762  0.09528865599065924  0.10964281603035365  1.0000
  N   N2        1.0  0.4162141476874462  0.5952886571012274  0.8903571839420246  1.0000
  N   N3        1.0  0.16395014311304731  0.2630183146395096  0.3178706393971965  1.0000
  N   N4        1.0  0.8360498556656143  0.7630183143917285  0.6821293605524499  1.0000
  N   N5        1.0  0.10327627684736225  0.7287814892786512  0.32039520883872186  1.0000
  N   N6        1.0  0.8967237233952601  0.2287814895264322  0.6796047911336563  1.0000
  N   N7        1.0  0.17096727831242883  0.8332301966301509  0.17077855124858077  1.0000
  N   N8        1.0  0.8290327204662328  0.33323019551958266  0.8292214487010656  1.0000
  N   N9        1.0  0.5362649857218338  0.5879462441339911  0.09977850420998571  1.0000
  N   N10       1.0  0.46373501452078864  0.08794624438177216  0.9002214957623924  1.0000
  O   O1        1.0  0.12614944118474727  0.24153443174401404  0.38385403105217636  1.0000
  O   O2        1.0  0.8738505590578752  0.7415344328545822  0.6161459689202018  1.0000
  O   O3        1.0  0.32778604766987207  0.3201472124643717  0.2993171778343049  1.0000
  O   O4        1.0  0.6722139525727504  0.8201472122165906  0.7006828221380733  1.0000
  O   O5        1.0  0.4385272892638753  0.747898467596677  0.3967612697280512  1.0000
  O   O6        1.0  0.5614727095147863  0.247898467844458  0.6032387302215951  1.0000
  O   O7        1.0  0.3019378204898507  0.6449647366889387  0.49921170120156827  1.0000
  O   O8        1.0  0.6980621797527717  0.1449647369367198  0.5007882987708099  1.0000
  O   O9        1.0  0.3076229878510563  0.8634612932277556  0.217131560233599  1.0000
  O   O10       1.0  0.6923770123915662  0.36346129211718736  0.7828684397387792  1.0000
  O   O11       1.0  0.1842699387043596  0.8811157273836511  0.10638963903656026  1.0000
  O   O12       1.0  0.815730060074302  0.38111572763143203  0.893610360913086  1.0000
  O   O13       1.0  0.5736516277817938  0.6321671496060624  0.03633481962892548  1.0000
  O   O14       1.0  0.42634837246082863  0.13216714985384337  0.9636651803434527  1.0000
  O   O15       1.0  0.3805988461141384  0.5131695245974558  0.11618234298238143  1.0000
  O   O16       1.0  0.6194011526645232  0.013169524845236891  0.883817656967265  1.0000
