data_image0
_chemical_formula_structural       H70C54N6O10Cl4
_chemical_formula_sum              "H70 C54 N6 O10 Cl4"
_cell_length_a       5.905556485469189
_cell_length_b       12.045251005869785
_cell_length_c       20.31463421305301
_cell_angle_alpha    102.66359420695018
_cell_angle_beta     91.67303512469849
_cell_angle_gamma    102.18632093723149

_space_group_name_H-M_alt    "P 1"
_space_group_IT_number       1

loop_
  _space_group_symop_operation_xyz
  'x, y, z'

loop_
  _atom_site_type_symbol
  _atom_site_label
  _atom_site_symmetry_multiplicity
  _atom_site_fract_x
  _atom_site_fract_y
  _atom_site_fract_z
  _atom_site_occupancy
  H   H1        1.0  0.36047982731808403  0.6285997337394259  0.3352635858738251  1.0000
  H   H2        1.0  0.6395201725315299  0.3714002663091203  0.6647364142938221  1.0000
  H   H3        1.0  0.7298395641846024  0.8378732362382291  0.3612269196051029  1.0000
  H   H4        1.0  0.2701604355276232  0.1621267636159521  0.6387730800564456  1.0000
  H   H5        1.0  0.9763575919144455  0.8329741201059127  0.26322339821402263  1.0000
  H   H6        1.0  0.023642407935168478  0.16702587994263352  0.7367766019536246  1.0000
  H   H7        1.0  0.6483860199935092  0.6361383224290189  0.45921881509508455  1.0000
  H   H8        1.0  0.3516139798561047  0.36386167761952737  0.5407811850725626  1.0000
  H   H9        1.0  0.6397528137348785  0.7855082350578021  0.46661359503549443  1.0000
  H   H10       1.0  0.36024718597734706  0.21449176479637902  0.5333864046260541  1.0000
  H   H11       1.0  0.8609184421134185  0.7459091372093978  0.5123536764967992  1.0000
  H   H12       1.0  0.1390815577361954  0.2540908628391485  0.487646323670848  1.0000
  H   H13       1.0  0.17876524029331323  0.6503440940702171  0.49853344179667747  1.0000
  H   H14       1.0  0.8212347594189122  0.34965590578396394  0.5014665578648709  1.0000
  H   H15       1.0  0.2699762668652172  0.5508077830343217  0.43155304999124283  1.0000
  H   H16       1.0  0.7300237329843967  0.44919221701422457  0.5684469501764043  1.0000
  H   H17       1.0  0.9732628734952602  0.5298411646359301  0.44927574574689383  1.0000
  H   H18       1.0  0.026737126354353775  0.4701588354126161  0.5507242544207533  1.0000
  H   H19       1.0  0.9463354059784087  0.20180388419072776  0.06464443023727078  1.0000
  H   H20       1.0  0.05366459387120538  0.7981961158578184  0.9353555699303765  1.0000
  H   H21       1.0  0.7115737501949988  0.0950725416548051  0.03246959048883492  1.0000
  H   H22       1.0  0.28842624965461494  0.904927458393741  0.9675304096788123  1.0000
  H   H23       1.0  0.6804914432015685  0.23596103297242776  0.05484783352707221  1.0000
  H   H24       1.0  0.3195085566480454  0.7640389670761185  0.945152166640575  1.0000
  H   H25       1.0  0.16719168290782255  0.1399069089849775  0.27008106079393  1.0000
  H   H26       1.0  0.8328083169417914  0.8600930910635687  0.7299189393737171  1.0000
  H   H27       1.0  0.10515879409146134  0.13790105544159806  0.38983856422697893  1.0000
  H   H28       1.0  0.8948412057581526  0.8620989446069482  0.6101614359406682  1.0000
  H   H29       1.0  0.3710232402844811  0.004791584675990016  0.33665142147522437  1.0000
  H   H30       1.0  0.628976759565133  0.9952084153725562  0.6633485786924228  1.0000
  H   H31       1.0  0.43156262047342936  0.007375843569988388  0.21709419592127088  1.0000
  H   H32       1.0  0.5684373793761847  0.9926241564785577  0.7829058042463762  1.0000
  H   H33       1.0  0.031263140437100274  0.10713627296399521  0.15815070924896926  1.0000
  H   H34       1.0  0.9687368594125136  0.892863727084551  0.8418492909186779  1.0000
  H   H35       1.0  0.579584661873538  0.9196777633652852  0.1164517076058397  1.0000
  H   H36       1.0  0.42041533797607594  0.08032223668326113  0.8835482925618073  1.0000
  H   H37       1.0  0.8011863784290999  0.9549501402299505  0.06328958599270074  1.0000
  H   H38       1.0  0.19881362142051395  0.04504985981859558  0.9367104141749464  1.0000
  H   H39       1.0  0.5302370958771586  0.13517764420494624  0.14032453717770696  1.0000
  H   H40       1.0  0.4697629055301597  0.8648223556536122  0.8596754624830051  1.0000
  H   H41       1.0  0.7758299277545003  0.24944044570928176  0.17285043636675454  1.0000
  H   H42       1.0  0.2241700720951137  0.7505595543392645  0.8271495638008927  1.0000
  H   H43       1.0  0.2555659944699767  0.8016771657844444  0.15666700941167108  1.0000
  H   H44       1.0  0.7444340053796372  0.19832283426410183  0.843332990755976  1.0000
  H   H45       1.0  0.5136141177076776  0.7548125477787542  0.1601528525522261  1.0000
  H   H46       1.0  0.48638588200454785  0.245187452075427  0.8398471471093225  1.0000
  H   H47       1.0  0.2982886263978222  0.7241409184577897  0.21431910124397593  1.0000
  H   H48       1.0  0.7017113734517917  0.2758590815907565  0.7856808989236712  1.0000
  H   H49       1.0  0.7554270311974307  0.571054360423324  0.18891771148817194  1.0000
  H   H50       1.0  0.24457296865218325  0.4289456396252222  0.8110822886794752  1.0000
  H   H51       1.0  0.8176935521986776  0.5013237759345264  0.29281065359211267  1.0000
  H   H52       1.0  0.18230644934602924  0.4986762241183971  0.7071893465746978  1.0000
  H   H53       1.0  0.0872034595502329  0.34232788661089875  0.28025889553620775  1.0000
  H   H54       1.0  0.9127965402993811  0.6576721134376475  0.7197411046314393  1.0000
  H   H55       1.0  0.027332846167701846  0.41091089701818667  0.1759846773484523  1.0000
  H   H56       1.0  0.9726671536819119  0.5890891030303594  0.8240153228191948  1.0000
  H   H57       1.0  0.5317335751694822  0.5637901154454489  0.09279450254045239  1.0000
  H   H58       1.0  0.4682664263752246  0.4362098846074745  0.907205497626358  1.0000
  H   H59       1.0  0.05159003764391808  0.3991933093540062  0.05687412962590705  1.0000
  H   H60       1.0  0.948409962205696  0.60080669069454  0.9431258705417399  1.0000
  H   H61       1.0  0.25124033310355015  0.4549161140163423  0.002145325115102398  1.0000
  H   H62       1.0  0.7487596666086754  0.545083885837839  0.9978546745464462  1.0000
  H   H63       1.0  0.21784637790725836  0.6501069946665436  0.06361001320289347  1.0000
  H   H64       1.0  0.7821536219423555  0.3498930053820025  0.9363899869647537  1.0000
  H   H65       1.0  0.04211243937021047  0.5969583588846625  0.12448954324116474  1.0000
  H   H66       1.0  0.9578875625319296  0.4030416420192191  0.8755104569298146  1.0000
  H   H67       1.0  0.7286044181715307  0.911311407929291  0.9528874062371083  1.0000
  H   H68       1.0  0.2713955816780833  0.0886885921192553  0.04711259393053894  1.0000
  H   H69       1.0  0.7791599937781163  0.024881501349636043  0.9203915741487468  1.0000
  H   H70       1.0  0.22084000593410932  0.9751184985045451  0.07960842551280184  1.0000
  C   C1        1.0  0.21878463054025493  0.6743431305879022  0.34289418170628766  1.0000
  C   C2        1.0  0.781215369309359  0.32565686946064404  0.6571058184613595  1.0000
  C   C3        1.0  0.08657957652757156  0.6681220221320268  0.3984352986802539  1.0000
  C   C4        1.0  0.9134204231846539  0.33187797772215427  0.6015647009812946  1.0000
  C   C5        1.0  0.9055406237898487  0.7288506316696043  0.4062277157150047  1.0000
  C   C6        1.0  0.09445937775485802  0.2711493683833192  0.5937722844518059  1.0000
  C   C7        1.0  0.8687859675344654  0.7904185265690133  0.35752709964544543  1.0000
  C   C8        1.0  0.13121403231514858  0.20958147347953282  0.6424729005222016  1.0000
  C   C9        1.0  0.007528119201715586  0.7892575563441636  0.30321422427869715  1.0000
  C   C10       1.0  0.9924718806478983  0.2107424437043826  0.69678577588895  1.0000
  C   C11       1.0  0.7550883709510838  0.7246593321171058  0.46404995031409607  1.0000
  C   C12       1.0  0.2449116288985302  0.2753406679314404  0.5359500498535511  1.0000
  C   C13       1.0  0.13063759135362987  0.5960888761180922  0.4468796019901601  1.0000
  C   C14       1.0  0.8693624084959841  0.4039111239304539  0.553120398177487  1.0000
  C   C15       1.0  0.8044555952100696  0.07582426797523335  0.23479084823270555  1.0000
  C   C16       1.0  0.1955444046395444  0.9241757320733129  0.7652091519349417  1.0000
  C   C17       1.0  0.9913655000402442  0.11141577279674147  0.28427718810632635  1.0000
  C   C18       1.0  0.008634499809369785  0.8885842272518047  0.7157228120613207  1.0000
  C   C19       1.0  0.9580568083771646  0.11051079281504955  0.3519011239426907  1.0000
  C   C20       1.0  0.041943191335060914  0.8894892070391315  0.6480988757188578  1.0000
  C   C21       1.0  0.7339598240355074  0.07324161754694049  0.3701812512228014  1.0000
  C   C22       1.0  0.26604017581410655  0.9267583825016058  0.6298187489448458  1.0000
  C   C23       1.0  0.5444872198940428  0.035745033983800995  0.32181567914388204  1.0000
  C   C24       1.0  0.4555127799555711  0.9642549660647453  0.6781843210237651  1.0000
  C   C25       1.0  0.5809495155768344  0.03753609596886687  0.2545237712501568  1.0000
  C   C26       1.0  0.41905048413539103  0.9624639038853141  0.7454762284113917  1.0000
  C   C27       1.0  0.843531208237091  0.07657482177616635  0.16159661328355798  1.0000
  C   C28       1.0  0.1564687916125228  0.9234251782723799  0.8384033868840893  1.0000
  C   C29       1.0  0.7669856534006587  0.9526501144014343  0.11591132229557788  1.0000
  C   C30       1.0  0.23301434680638855  0.0473498864980702  0.884088677876238  1.0000
  C   C31       1.0  0.9019717311789189  0.8696533186147918  0.13641716388910377  1.0000
  C   C32       1.0  0.0980282686706949  0.13034668143375433  0.8635828362785432  1.0000
  C   C33       1.0  0.7186963000908324  0.16272901808582652  0.13866904025199678  1.0000
  C   C34       1.0  0.28130369962139296  0.8372709817683545  0.8613309594095516  1.0000
  C   C35       1.0  0.3886278698198297  0.4933661081560289  0.1735465213798522  1.0000
  C   C36       1.0  0.6113721315874885  0.5066338917025295  0.8264534782808597  1.0000
  C   C37       1.0  0.609036012051617  0.518971206145998  0.20798176398317544  1.0000
  C   C38       1.0  0.39096398779799696  0.4810287939025481  0.7920182361844716  1.0000
  C   C39       1.0  0.6453347854420679  0.48041812827574526  0.26657966172217784  1.0000
  C   C40       1.0  0.3546652142701576  0.5195818715784357  0.7334203379393707  1.0000
  C   C41       1.0  0.45690497089935755  0.41570897516924193  0.2915483505876446  1.0000
  C   C42       1.0  0.5430950291703012  0.5842910255358974  0.7084516490780727  1.0000
  C   C43       1.0  0.23354236684457658  0.39126103843359056  0.25953950410187915  1.0000
  C   C44       1.0  0.7664576330050374  0.6087389616149557  0.740460496065768  1.0000
  C   C45       1.0  0.20191134834112923  0.43042943204424017  0.20089350119361307  1.0000
  C   C46       1.0  0.7980886515084846  0.569570568004306  0.799106498974034  1.0000
  C   C47       1.0  0.35757718827802326  0.5297679363800648  0.10753223502213459  1.0000
  C   C48       1.0  0.6424228132666834  0.4702320636728587  0.892467765144676  1.0000
  C   C49       1.0  0.23744325153874984  0.4256992041010969  0.049853315884987995  1.0000
  C   C50       1.0  0.7625567483108641  0.5743007959474493  0.950146684282659  1.0000
  C   C51       1.0  0.35408155653175055  0.32324411597649977  0.045653730660269495  1.0000
  C   C52       1.0  0.645918443180475  0.6767558838776814  0.9543462690012792  1.0000
  C   C53       1.0  0.22226522388159928  0.626088129326835  0.11269589705299767  1.0000
  C   C54       1.0  0.7777347758306263  0.37391187052734626  0.8873041026085509  1.0000
  N   N1        1.0  0.18104096405325576  0.732284474541326  0.29571931964799675  1.0000
  N   N2        1.0  0.8189590356589698  0.26771552531285514  0.7042806800135517  1.0000
  N   N3        1.0  0.7661747337742896  0.1740199394533328  0.06907237327909962  1.0000
  N   N4        1.0  0.23382526607532428  0.8259800605952135  0.9309276268885475  1.0000
  N   N5        1.0  0.33177304733916185  0.7327937091780158  0.16462137043745237  1.0000
  N   N6        1.0  0.6682269523730636  0.26720629067616547  0.8353786292240962  1.0000
  O   O1        1.0  0.12468608629170147  0.9014416383096014  0.13876427341691602  1.0000
  O   O2        1.0  0.8753139135579123  0.09855836173894467  0.8612357267507311  1.0000
  O   O3        1.0  0.7970461193420477  0.7759205993029649  0.15058437231985797  1.0000
  O   O4        1.0  0.20295388050756627  0.22407940074558133  0.8494156278477891  1.0000
  O   O5        1.0  0.5697078549364079  0.3412330692599193  0.037494502504803955  1.0000
  O   O6        1.0  0.43029214491320605  0.6587669307886268  0.9625054976628431  1.0000
  O   O7        1.0  0.22988392276372707  0.22633292039560102  0.05270226691974282  1.0000
  O   O8        1.0  0.7701160773059317  0.7736670803095382  0.9472977327459743  1.0000
  O   O9        1.0  0.7068622977086865  0.9922350028763354  0.957728466232123  1.0000
  O   O10       1.0  0.29313770214092755  0.0077649971722107995  0.042271533935524096  1.0000
  Cl  Cl1       1.0  0.6884062793291112  0.07089330990247275  0.45408615015973347  1.0000
  Cl  Cl2       1.0  0.3115937203831142  0.9291066899517084  0.5459138495018151  1.0000
  Cl  Cl3       1.0  0.501239028476739  0.3667519349322234  0.36458138437486265  1.0000
  Cl  Cl4       1.0  0.49876097137287495  0.6332480651163228  0.6354186157927846  1.0000
