data_image0
_chemical_formula_structural       H92C104N28O24
_chemical_formula_sum              "H92 C104 N28 O24"
_cell_length_a       9.756141839515625
_cell_length_b       10.395957155330919
_cell_length_c       22.932331905012102
_cell_angle_alpha    90.0
_cell_angle_beta     93.41052260252127
_cell_angle_gamma    90.0

_space_group_name_H-M_alt    "P 1"
_space_group_IT_number       1

loop_
  _space_group_symop_operation_xyz
  'x, y, z'

loop_
  _atom_site_type_symbol
  _atom_site_label
  _atom_site_symmetry_multiplicity
  _atom_site_fract_x
  _atom_site_fract_y
  _atom_site_fract_z
  _atom_site_occupancy
  H   H1        1.0  0.6523818534602195  0.7256162417071716  0.7889205258245404  1.0000
  H   H2        1.0  0.8476181463136143  0.2256162424445216  0.71107947418229  1.0000
  H   H3        1.0  0.34761814707446975  0.2743837577800407  0.21107947434192917  1.0000
  H   H4        1.0  0.15238185319426467  0.774383758004603  0.2889205259593728  1.0000
  H   H5        1.0  0.905796539238958  0.757176722872848  0.7895771611110457  1.0000
  H   H6        1.0  0.5942034605348758  0.2571767226482856  0.7104228388957847  1.0000
  H   H7        1.0  0.09420346129295154  0.24282327757627675  0.2104228386192896  1.0000
  H   H8        1.0  0.4057965389730032  0.7428232778008391  0.28957716124587807  1.0000
  H   H9        1.0  0.05944001654790562  0.5632694587431285  0.7952556857862538  1.0000
  H   H10       1.0  0.4405599834703393  0.0632694585185661  0.704744314471478  1.0000
  H   H11       1.0  0.9405599829599733  0.4367305417059962  0.20474431435540902  1.0000
  H   H12       1.0  0.5594400170643499  0.9367305419305586  0.2952556856949918  1.0000
  H   H13       1.0  0.9497466111307891  0.3445624252273073  0.8055735160372488  1.0000
  H   H14       1.0  0.5502533886430447  0.8445624254518697  0.6944264839695816  1.0000
  H   H15       1.0  0.050253388374310384  0.655437574259905  0.19442648366827966  1.0000
  H   H16       1.0  0.4497466118916444  0.15543757403534264  0.305573516196888  1.0000
  H   H17       1.0  0.6951470875497481  0.33205030748225683  0.8092249434120629  1.0000
  H   H18       1.0  0.8048529122240857  0.8320503077068192  0.6907750565947676  1.0000
  H   H19       1.0  0.3048529119553513  0.6679496929668679  0.19077505629346556  1.0000
  H   H20       1.0  0.19514708728379332  0.16794969274230548  0.3092249435468952  1.0000
  H   H21       1.0  0.6227617421207944  0.25077193961531047  0.9728094278065921  1.0000
  H   H22       1.0  0.8772382576530394  0.7507719398398728  0.5271905722002383  1.0000
  H   H23       1.0  0.3772382573870846  0.7492280598719018  0.02719057233507068  1.0000
  H   H24       1.0  0.12276174185483962  0.2492280596473395  0.4728094279414244  1.0000
  H   H25       1.0  0.4468721935370636  0.27429360350314286  0.9865719722993319  1.0000
  H   H26       1.0  0.05312780647840177  0.7742936037277053  0.5134280275222656  1.0000
  H   H27       1.0  0.5531278069976255  0.7257063969459818  0.013428027867137888  1.0000
  H   H28       1.0  0.9468721930266977  0.2257063967214195  0.48657197218326287  1.0000
  H   H29       1.0  0.693538373343047  0.05524697547502712  0.10487269233788883  1.0000
  H   H30       1.0  0.8064616266812763  0.5552469756995895  0.3951273077125119  1.0000
  H   H31       1.0  0.3064616261648321  0.9447530240121852  0.895127307803774  1.0000
  H   H32       1.0  0.1935383738506333  0.4447530237876228  0.6048726920178236  1.0000
  H   H33       1.0  0.7660176026629223  0.17017765786893385  0.05825694593672205  1.0000
  H   H34       1.0  0.7339823973614009  0.6701776580934962  0.44174305411367865  1.0000
  H   H35       1.0  0.23398239684495664  0.8298223425801908  0.9417430542049408  1.0000
  H   H36       1.0  0.2660176031705087  0.3298223423556285  0.5582569456166566  1.0000
  H   H37       1.0  0.58187857174064  0.4414978468477442  0.13007130033639908  1.0000
  H   H38       1.0  0.9181214282836834  0.9414978470723064  0.36992869971400166  1.0000
  H   H39       1.0  0.4181214277672391  0.5585021526394681  0.8699286998052638  1.0000
  H   H40       1.0  0.08187857224822624  0.05850215337681819  0.6300713000163337  1.0000
  H   H41       1.0  0.4581189309346587  0.32554294995959626  0.10772998625833188  1.0000
  H   H42       1.0  0.04188106933407568  0.8255429492222462  0.3922700140429702  1.0000
  H   H43       1.0  0.5418810696000304  0.6744570504895284  0.8922700139081379  1.0000
  H   H44       1.0  0.9581189301738033  0.17445705026496608  0.6077299860986927  1.0000
  H   H45       1.0  0.7723767669113465  0.505952967236192  0.1153497664730881  1.0000
  H   H46       1.0  0.7276232331129766  0.005952967011629632  0.38465023357731265  1.0000
  H   H47       1.0  0.22762323362334266  0.4940470332129327  0.8846502336933815  1.0000
  H   H48       1.0  0.2723767663949023  0.994047033437495  0.6153497665643501  1.0000
  H   H49       1.0  0.9477121649732416  0.6562037038120949  0.08265896142700986  1.0000
  H   H50       1.0  0.5522878350510816  0.15620370358753266  0.4173410386233909  1.0000
  H   H51       1.0  0.052287835558667874  0.34379629567511727  0.9173410383033255  1.0000
  H   H52       1.0  0.4477121644567974  0.8437962958996796  0.5826589615182719  1.0000
  H   H53       1.0  0.8181049757853747  0.5823076922643688  0.90354536560082  1.0000
  H   H54       1.0  0.681895023988459  0.0823076920398065  0.5964546344060104  1.0000
  H   H55       1.0  0.18189502372250435  0.4176923081847559  0.09645463454084276  1.0000
  H   H56       1.0  0.3181049755194199  0.9176923074474058  0.4035453657356523  1.0000
  H   H57       1.0  0.6377544774404031  0.43375798905516566  0.9346878933657933  1.0000
  H   H58       1.0  0.8622455233602407  0.933757989279728  0.5653121066658441  1.0000
  H   H59       1.0  0.36224552309428604  0.5662420104320466  0.06531210680067641  1.0000
  H   H60       1.0  0.13775447717166875  0.06624201116939667  0.43468789306449124  1.0000
  H   H61       1.0  0.5178692176821641  0.04053363761545693  0.15030073847923542  1.0000
  H   H62       1.0  0.9821307823393796  0.5405336378400193  0.3496992611350311  1.0000
  H   H63       1.0  0.4821307828497455  0.9594663628336677  0.8496992612511  1.0000
  H   H64       1.0  0.017869217165719854  0.4594663626091054  0.6503007385704974  1.0000
  H   H65       1.0  0.30152433877953827  0.9484187268840422  0.18127693154780847  1.0000
  H   H66       1.0  0.19847566148641652  0.44841872665947996  0.3187230683173592  1.0000
  H   H67       1.0  0.6984756617551509  0.0515812735650824  0.8187230686186611  1.0000
  H   H68       1.0  0.8015243390454931  0.5515812737896447  0.6812769314129761  1.0000
  H   H69       1.0  0.10297243385723294  0.038457797009579305  0.01339945356423017  1.0000
  H   H70       1.0  0.3970275653819117  0.5384577962722292  0.48660054627613064  1.0000
  H   H71       1.0  0.8970275656478666  0.9615422034395454  0.9866005461412982  1.0000
  H   H72       1.0  0.6029724341231877  0.46154220321498307  0.5133994534293979  1.0000
  H   H73       1.0  0.31821760230002377  0.12737092315939336  0.9808115006026065  1.0000
  H   H74       1.0  0.18178239771544155  0.6273709233839556  0.5191884992189908  1.0000
  H   H75       1.0  0.6817823982346655  0.8726290772897314  0.01918849956386309  1.0000
  H   H76       1.0  0.8182176017896579  0.37262907706516896  0.4808115004865376  1.0000
  H   H77       1.0  0.5697981591427614  0.3861900727381559  0.21743076051346108  1.0000
  H   H78       1.0  0.9302018408815618  0.8861900729627182  0.28256923953693963  1.0000
  H   H79       1.0  0.4302018413891482  0.6138099267490563  0.7825692392168743  1.0000
  H   H80       1.0  0.06979815862631714  0.11380992652449404  0.717430760604723  1.0000
  H   H81       1.0  0.6751988707451094  0.3815895516619917  0.31780779934157083  1.0000
  H   H82       1.0  0.8248011292792137  0.8815895509246416  0.1821922007088299  1.0000
  H   H83       1.0  0.32480112876276956  0.6184104487871329  0.6821922008000919  1.0000
  H   H84       1.0  0.1751988712554754  0.11841044856257066  0.8178077994576398  1.0000
  H   H85       1.0  0.9605990683913637  0.08974744663328701  0.26945060010127564  1.0000
  H   H86       1.0  0.5394009316329597  0.5897474468578494  0.2305493999491251  1.0000
  H   H87       1.0  0.03940093214054597  0.9102525528539254  0.7305493996290596  1.0000
  H   H88       1.0  0.4605990678749194  0.4102525535912753  0.7694506001925376  1.0000
  H   H89       1.0  0.862194784752247  0.09713421139699344  0.16704412143033065  1.0000
  H   H90       1.0  0.6378052152720763  0.5971342106596433  0.3329558786200701  1.0000
  H   H91       1.0  0.1378052147556321  0.9028657890521313  0.8329558787113321  1.0000
  H   H92       1.0  0.36219478526261284  0.4028657888275689  0.6670441215463996  1.0000
  C   C1        1.0  0.7216111133457913  0.643172810362276  0.7928681172763178  1.0000
  C   C2        1.0  0.7783888864280426  0.1431728101377137  0.7071318827305126  1.0000
  C   C3        1.0  0.2783888861620878  0.3568271900868486  0.207131882865345  1.0000
  C   C4        1.0  0.2216111130770568  0.856827190311411  0.29286811697501575  1.0000
  C   C5        1.0  0.8631162302293784  0.6608565365697979  0.7922645288606484  1.0000
  C   C6        1.0  0.6368837695444554  0.1608565363452356  0.7077354711461823  1.0000
  C   C7        1.0  0.13688377030531074  0.33914346387932676  0.20773547130582146  1.0000
  C   C8        1.0  0.36311622996342363  0.8391434641038891  0.29226452899548055  1.0000
  C   C9        1.0  0.9481959844194936  0.5528115337656049  0.7960073620204509  1.0000
  C   C10       1.0  0.5518040153543403  0.05281153354104254  0.7039926379863797  1.0000
  C   C11       1.0  0.05180401508560585  0.44718846572160736  0.2039926376850777  1.0000
  C   C12       1.0  0.44819598518034887  0.9471884659461698  0.29600736218009  1.0000
  C   C13       1.0  0.8881276872244488  0.4319683423952177  0.8016396843592454  1.0000
  C   C14       1.0  0.6118723135761952  0.9319683426197801  0.6983603156723919  1.0000
  C   C15       1.0  0.11187231331024049  0.5680316570919945  0.1983603158072242  1.0000
  C   C16       1.0  0.3881276869584939  0.06803165782934463  0.30163968449407774  1.0000
  C   C17       1.0  0.7452511872898517  0.42463470886240684  0.8032154744672388  1.0000
  C   C18       1.0  0.7547488124839821  0.9246347090869691  0.6967845255395917  1.0000
  C   C19       1.0  0.2547488122152477  0.5753652915867178  0.19678452523828968  1.0000
  C   C20       1.0  0.2452511880507071  0.0753652913621555  0.303215474626878  1.0000
  C   C21       1.0  0.5499942376908153  0.26145522527535653  0.007138672157216779  1.0000
  C   C22       1.0  0.950005762333508  0.7614552254999188  0.49286132789318393  1.0000
  C   C23       1.0  0.4500057628438739  0.7385447751737682  0.992861328009253  1.0000
  C   C24       1.0  0.04999423717159141  0.23854477494920584  0.5071386718123444  1.0000
  C   C25       1.0  0.6771063670805302  0.1490816013228044  0.08392295350473078  1.0000
  C   C26       1.0  0.8228936329437931  0.6490816005854544  0.41607704654567  1.0000
  C   C27       1.0  0.32289363242734886  0.8509183991263202  0.916077046636932  1.0000
  C   C28       1.0  0.17710636758811643  0.3509183989017579  0.5839229531846654  1.0000
  C   C29       1.0  0.5667388048693998  0.3525612452260372  0.1051233368982666  1.0000
  C   C30       1.0  0.9332611951549233  0.8525612454505995  0.3948766631521341  1.0000
  C   C31       1.0  0.4332611946356996  0.6474387552230875  0.894876662807262  1.0000
  C   C32       1.0  0.06673880537976573  0.14743875499852516  0.6051233370143355  1.0000
  C   C33       1.0  0.6907955597694344  0.45795047236787645  0.027525274190376852  1.0000
  C   C34       1.0  0.8092044402548888  0.9579504725924389  0.47247472586002387  1.0000
  C   C35       1.0  0.30920443973844464  0.5420495271193357  0.9724747259512858  1.0000
  C   C36       1.0  0.19079555925021052  0.042049526894773454  0.5275252738455046  1.0000
  C   C37       1.0  0.7784673708700821  0.5242107358248851  0.06889996478965552  1.0000
  C   C38       1.0  0.721532629154241  0.02421073560032272  0.43110003526074525  1.0000
  C   C39       1.0  0.22153262863501727  0.4757892646242396  0.931100034915873  1.0000
  C   C40       1.0  0.2784673713804481  0.9757892638868896  0.5688999649057245  1.0000
  C   C41       1.0  0.8777962159570376  0.6080076077226579  0.05104257292163168  1.0000
  C   C42       1.0  0.6222037840672856  0.10800760749809556  0.448957427128769  1.0000
  C   C43       1.0  0.12220378355084131  0.39199239272646674  0.9489574272200311  1.0000
  C   C44       1.0  0.377796216464624  0.8919923919891167  0.5510425726015663  1.0000
  C   C45       1.0  0.8915979648788139  0.6278918249151074  0.9912810039288148  1.0000
  C   C46       1.0  0.6084020348950199  0.1278918246905451  0.5087189960780157  1.0000
  C   C47       1.0  0.1084020356558753  0.3721081755340172  0.008718996237654895  1.0000
  C   C48       1.0  0.39159796461007945  0.8721081747966671  0.49128100362751276  1.0000
  C   C49       1.0  0.8050190973751915  0.5648443296045003  0.949582304426664  1.0000
  C   C50       1.0  0.6949809023986422  0.06484433034185025  0.5504176955801666  1.0000
  C   C51       1.0  0.19498090315949768  0.4351556698827121  0.05041769573980574  1.0000
  C   C52       1.0  0.3050190971064571  0.9351556701072744  0.449582304125362  1.0000
  C   C53       1.0  0.705647605478421  0.4812254990330184  0.9672996006793807  1.0000
  C   C54       1.0  0.794352395322223  0.9812254992575808  0.5327003993522568  1.0000
  C   C55       1.0  0.29435239505348854  0.5187745014161063  0.032700399050954725  1.0000
  C   C56       1.0  0.20564760521246628  0.018774501191543932  0.46729960081421296  1.0000
  C   C57       1.0  0.43447469570813885  0.0940976771435012  0.06326349475849573  1.0000
  C   C58       1.0  0.06552530456059551  0.5940976773680635  0.4367365055428063  1.0000
  C   C59       1.0  0.5655253048265503  0.9059023223437112  0.9367365054079738  1.0000
  C   C60       1.0  0.9344746949472833  0.40590232308106117  0.5632634945988565  1.0000
  C   C61       1.0  0.4285026264177234  0.03972062060569888  0.1196797987358634  1.0000
  C   C62       1.0  0.07149737384823142  0.5397206208302612  0.3803202011293043  1.0000
  C   C63       1.0  0.5714973730901557  0.9602793798434258  0.8803202014057995  1.0000
  C   C64       1.0  0.928502626683678  0.4602793796188635  0.6196797986010311  1.0000
  C   C65       1.0  0.3074093971408997  0.9875623751234281  0.13748624959049904  1.0000
  C   C66       1.0  0.19259060312783463  0.48756237489886584  0.3625137507108029  1.0000
  C   C67       1.0  0.6925906023669793  0.012437625325696538  0.8625137505511639  1.0000
  C   C68       1.0  0.8074093974068545  0.5124376255502588  0.6374862494556668  1.0000
  C   C69       1.0  0.18979424264222655  0.9896022373201596  0.0995157474824396  1.0000
  C   C70       1.0  0.3102057576265078  0.48960223805750974  0.4004842528188624  1.0000
  C   C71       1.0  0.8102057578924625  0.010397762167052637  0.90048425268403  1.0000
  C   C72       1.0  0.6897942418813712  0.5103977623916149  0.5995157473228004  1.0000
  C   C73       1.0  0.1936021878120343  0.04115970502827447  0.04327388310859812  1.0000
  C   C74       1.0  0.30639781245392045  0.5411597052528367  0.4567261167565696  1.0000
  C   C75       1.0  0.8063978127226549  0.9588402944589378  0.9567261170578715  1.0000
  C   C76       1.0  0.6936021870511789  0.4588402942343755  0.5432738829489588  1.0000
  C   C77       1.0  0.3148643814048666  0.0918214576817977  0.02526284831371254  1.0000
  C   C78       1.0  0.1851356188638678  0.5918214569444477  0.4747371519875895  1.0000
  C   C79       1.0  0.6851356181030124  0.908178542767327  0.9747371518279503  1.0000
  C   C80       1.0  0.8148643816708213  0.40817854254276464  0.5252628481788801  1.0000
  C   C81       1.0  0.7109683359202108  0.24435101184477126  0.18403720275289628  1.0000
  C   C82       1.0  0.7890316641041125  0.7443510111074212  0.3159627972975045  1.0000
  C   C83       1.0  0.28903166461447843  0.7556489886043535  0.8159627974135734  1.0000
  C   C84       1.0  0.21096833540098692  0.2556489883797911  0.684037202408024  1.0000
  C   C85       1.0  0.658868773478189  0.32507080391987514  0.22764504623409246  1.0000
  C   C86       1.0  0.8411312265461344  0.8250708041444376  0.2723549538163083  1.0000
  C   C87       1.0  0.3411312260296901  0.6749291965292495  0.7723549539075704  1.0000
  C   C88       1.0  0.15886877398577529  0.1749291963046872  0.7276450459140271  1.0000
  C   C89       1.0  0.7168752934883545  0.3228967106966831  0.283919063924113  1.0000
  C   C90       1.0  0.7831247065359687  0.8228967109212454  0.21608093612628776  1.0000
  C   C91       1.0  0.28312470704633463  0.6771032887905292  0.7160809362423567  1.0000
  C   C92       1.0  0.21687529296913075  0.17710328856596688  0.7839190635792408  1.0000
  C   C93       1.0  0.8260835843860949  0.23889320847445775  0.298533138387638  1.0000
  C   C94       1.0  0.6739164156382283  0.7388932086990201  0.20146686166276276  1.0000
  C   C95       1.0  0.17391641511900455  0.7611067919746669  0.7014668613178905  1.0000
  C   C96       1.0  0.3260835848964608  0.2611067917501046  0.7985331385037068  1.0000
  C   C97       1.0  0.875589396284503  0.15421558362020463  0.25690112470306364  1.0000
  C   C98       1.0  0.6244106037398202  0.654215583844767  0.24309887534733704  1.0000
  C   C99       1.0  0.12441060425018614  0.8457844158670076  0.7430988754634059  1.0000
  C   C100      1.0  0.37558939576527917  0.3457844166043577  0.7569011243581913  1.0000
  C   C101      1.0  0.8193522173239635  0.1573541508067064  0.20025655451580265  1.0000
  C   C102      1.0  0.6806477827003599  0.6573541510312687  0.2997434455345981  1.0000
  C   C103      1.0  0.18064778321072572  0.8426458496424182  0.799743445650667  1.0000
  C   C104      1.0  0.31935221680473963  0.3426458494178559  0.7002565541709304  1.0000
  N   N1        1.0  0.6622335219588633  0.5275572530796392  0.7982636380554876  1.0000
  N   N2        1.0  0.8377664778149705  0.027557252855076892  0.7017363619513428  1.0000
  N   N3        1.0  0.3377664775490157  0.4724427473694855  0.20173636208617518  1.0000
  N   N4        1.0  0.16223352169012895  0.9724427466321354  0.2982636377541856  1.0000
  N   N5        1.0  0.5920715627699914  0.37293491422402736  0.04426313606389171  1.0000
  N   N6        1.0  0.9079284372543319  0.8729349144485896  0.45573686398650903  1.0000
  N   N7        1.0  0.4079284377646977  0.6270650852631848  0.955736864102578  1.0000
  N   N8        1.0  0.0920715622535472  0.12706508600053495  0.5442631361551538  1.0000
  N   N9        1.0  0.5547999416034733  0.1478246049919472  0.044787341496821266  1.0000
  N   N10       1.0  0.9452000584208499  0.6478246052165095  0.45521265855357945  1.0000
  N   N11       1.0  0.44520005893121584  0.8521753944952651  0.9552126586696484  1.0000
  N   N12       1.0  0.05479994108702903  0.35217539523261515  0.5447873415880833  1.0000
  N   N13       1.0  0.6579951762972485  0.2499234963341185  0.12804774961919246  1.0000
  N   N14       1.0  0.8420048237270747  0.7499234965586808  0.3719522504312082  1.0000
  N   N15       1.0  0.3420048242374407  0.7500765041150061  0.8719522505472772  1.0000
  N   N16       1.0  0.15799517578080421  0.25007650389044384  0.6280477497104544  1.0000
  N   N17       1.0  0.9990782581050711  0.7093161581777675  0.9721457478837425  1.0000
  N   N18       1.0  0.5009217416687628  0.20931615795320516  0.5278542521230879  1.0000
  N   N19       1.0  0.0009217424296181847  0.2906838422713572  0.027854252282727105  1.0000
  N   N20       1.0  0.49907825783911625  0.7906838424959196  0.47214574801857484  1.0000
  N   N21       1.0  0.06362885204410622  0.939400227807993  0.11920414199182557  1.0000
  N   N22       1.0  0.4363711482218485  0.4394002275834306  0.38079585787334214  1.0000
  N   N23       1.0  0.9363711474609933  0.060599771679219316  0.8807958577137028  1.0000
  N   N24       1.0  0.5636288523128407  0.5605997719037816  0.6192041422931276  1.0000
  N   N25       1.0  0.8875678505092053  0.24124895308114286  0.3564987672416992  1.0000
  N   N26       1.0  0.6124321495151179  0.7412489523437927  0.14350123280870153  1.0000
  N   N27       1.0  0.1124321500227042  0.7587510473679818  0.6435012324886362  1.0000
  N   N28       1.0  0.3875678499927611  0.2587510471434195  0.8564987673329612  1.0000
  O   O1        1.0  0.007928915318814456  0.7263217553881547  0.9185152865402492  1.0000
  O   O2        1.0  0.49207108469665084  0.2263217551635923  0.5814847132813482  1.0000
  O   O3        1.0  0.9920710841890644  0.27367824506097005  0.08148471360141356  1.0000
  O   O4        1.0  0.5079289158352586  0.77367824432362  0.41851528644898717  1.0000
  O   O5        1.0  0.08074426465640538  0.7591774179208585  0.009887233976296034  1.0000
  O   O6        1.0  0.41925573560954943  0.25917741769629615  0.49011276588887165  1.0000
  O   O7        1.0  0.9192557358755041  0.24082258252826622  0.9901127657540393  1.0000
  O   O8        1.0  0.5807442638983297  0.7408225817909162  0.509887234252791  1.0000
  O   O9        1.0  0.9540040483976532  0.9621885527751189  0.0900317479244919  1.0000
  O   O10       1.0  0.5459959516266701  0.46218855351246907  0.40996825212590887  1.0000
  O   O11       1.0  0.045995951110225884  0.03781144671209329  0.9099682522171709  1.0000
  O   O12       1.0  0.4540040489080191  0.5378114469366556  0.5900317480405609  1.0000
  O   O13       1.0  0.06820645591050487  0.8760708229092438  0.1657820740906254  1.0000
  O   O14       1.0  0.43179354435822953  0.3760708226846815  0.3342179262106766  1.0000
  O   O15       1.0  0.9317935446241843  0.12392917753988082  0.8342179260758443  1.0000
  O   O16       1.0  0.5682064561764597  0.6239291768025308  0.6657820739557931  1.0000
  O   O17       1.0  0.8500103164817129  0.3257036229957624  0.39115390311538223  1.0000
  O   O18       1.0  0.6499896835426103  0.8257036232203248  0.10884609693501854  1.0000
  O   O19       1.0  0.14998968405297625  0.6742963764914499  0.6088460970510875  1.0000
  O   O20       1.0  0.3500103159652687  0.17429637626688757  0.8911539032066443  1.0000
  O   O21       1.0  0.9774785348698979  0.15880622104655528  0.37091961351723823  1.0000
  O   O22       1.0  0.5225214651544254  0.6588062203092052  0.1290803865331625  1.0000
  O   O23       1.0  0.022521465664791386  0.8411937794025695  0.6290803866492315  1.0000
  O   O24       1.0  0.47747853435345355  0.34119377917800703  0.8709196136085002  1.0000
