data_image0
_chemical_formula_structural       H36C26N4O6Br2
_chemical_formula_sum              "H36 C26 N4 O6 Br2"
_cell_length_a       5.152787051810291
_cell_length_b       11.536332501001
_cell_length_c       12.394197998777251
_cell_angle_alpha    71.20430635902224
_cell_angle_beta     81.19167158291076
_cell_angle_gamma    88.28101361091767

_space_group_name_H-M_alt    "P 1"
_space_group_IT_number       1

loop_
  _space_group_symop_operation_xyz
  'x, y, z'

loop_
  _atom_site_type_symbol
  _atom_site_label
  _atom_site_symmetry_multiplicity
  _atom_site_fract_x
  _atom_site_fract_y
  _atom_site_fract_z
  _atom_site_occupancy
  H   H1        1.0  0.8229318337029243  0.09973453829528084  0.2230684003977449  1.0000
  H   H2        1.0  0.17706816701783387  0.9002654619513932  0.7769315994468271  1.0000
  H   H3        1.0  0.310536210324746  0.936736701323245  0.06790805958085017  1.0000
  H   H4        1.0  0.6894637903960122  0.06326329892342888  0.932091940263722  1.0000
  H   H5        1.0  0.22994948241717228  0.7205980221682945  0.08725576580951135  1.0000
  H   H6        1.0  0.7700505160634334  0.27940197778508263  0.9127442348964747  1.0000
  H   H7        1.0  0.49903794430212456  0.7310147814478659  0.30897619450035396  1.0000
  H   H8        1.0  0.5009620544780617  0.26898521880163156  0.6910238053433879  1.0000
  H   H9        1.0  0.021035849515137574  0.26902269427279146  0.21449002444903464  1.0000
  H   H10       1.0  0.9789641509060402  0.7309773056777621  0.7855099762577814  1.0000
  H   H11       1.0  0.9797514036895351  0.3219654837140214  0.06921805284441578  1.0000
  H   H12       1.0  0.02024859514377705  0.6780345156688227  0.9307819469976916  1.0000
  H   H13       1.0  0.3187884128467891  0.44814401030685397  0.10666959297033014  1.0000
  H   H14       1.0  0.6812115875743887  0.5518559896436998  0.8933304077364859  1.0000
  H   H15       1.0  0.46035840467173444  0.37331237274257545  0.00818032074263176  1.0000
  H   H16       1.0  0.5396415941084517  0.626687627506922  0.9918196791011102  1.0000
  H   H17       1.0  0.5125578719811911  0.31662692614955373  0.15449623008650998  1.0000
  H   H18       1.0  0.48744212679899507  0.6833730740999436  0.8455037697572321  1.0000
  H   H19       1.0  0.5096287201590294  0.9502068144859821  0.31960480212762654  1.0000
  H   H20       1.0  0.49037128056172885  0.04979318576069183  0.6803951977169455  1.0000
  H   H21       1.0  0.16125751752628406  0.08049832041354084  0.5293443514565185  1.0000
  H   H22       1.0  0.8387424832476  0.9195016789664797  0.4706556483864188  1.0000
  H   H23       1.0  0.013718582592234194  0.14133456099235708  0.40606024303509175  1.0000
  H   H24       1.0  0.9862814161879521  0.8586654392571403  0.5939397568086502  1.0000
  H   H25       1.0  0.4369652720237954  0.269930111346348  0.4798563674111418  1.0000
  H   H26       1.0  0.5630347286969626  0.7300698889003261  0.5201436324334303  1.0000
  H   H27       1.0  0.329462362170921  0.32855746765430016  0.34557557858222665  1.0000
  H   H28       1.0  0.6705376386029632  0.6714425317257204  0.6544244212607105  1.0000
  H   H29       1.0  0.9719530894237463  0.2818131160376783  0.5782802025111109  1.0000
  H   H30       1.0  0.02804691135013784  0.7181868833423424  0.42171979733182635  1.0000
  H   H31       1.0  0.8692409108302691  0.338122654387139  0.4416990174233992  1.0000
  H   H32       1.0  0.13075908800304295  0.6618773449957049  0.5583009824187081  1.0000
  H   H33       1.0  0.27818493899765234  0.46317481816480965  0.5257218094449566  1.0000
  H   H34       1.0  0.7218150617231058  0.5368251820818644  0.4742781903996154  1.0000
  H   H35       1.0  0.1874714435893105  0.5164094638553055  0.3868164756399684  1.0000
  H   H36       1.0  0.8125285571314478  0.4835905363913684  0.6131835242046036  1.0000
  C   C1        1.0  0.9478701754589565  0.9488885131794864  0.17808540250799273  1.0000
  C   C2        1.0  0.05212982526180164  0.05111148706718759  0.8219145973365793  1.0000
  C   C3        1.0  0.13382421319819152  0.8888302421768447  0.12043956737727829  1.0000
  C   C4        1.0  0.8661757856351207  0.11116975720599928  0.8795604324648288  1.0000
  C   C5        1.0  0.08633213658310163  0.7674479637192178  0.13180084307116957  1.0000
  C   C6        1.0  0.9136678638380762  0.23255203623133597  0.8681991576356464  1.0000
  C   C7        1.0  0.8550815395248668  0.7091826079036174  0.19911925896040628  1.0000
  C   C8        1.0  0.1449184611958915  0.2908173923430567  0.8008807408841657  1.0000
  C   C9        1.0  0.6807403073167331  0.7735838176474313  0.2548190225712588  1.0000
  C   C10       1.0  0.31925969146345307  0.22641618260206597  0.7451809772724832  1.0000
  C   C11       1.0  0.1748738177843837  0.15235488931620433  0.11569020221184621  1.0000
  C   C12       1.0  0.8251261810489285  0.8476451100666398  0.884309797630261  1.0000
  C   C13       1.0  0.122614034781398  0.27854167184694834  0.12722635538339122  1.0000
  C   C14       1.0  0.8773859656397799  0.7214583281036053  0.8727736453234247  1.0000
  C   C15       1.0  0.3687390542844982  0.3584589265718992  0.09741602261830398  1.0000
  C   C16       1.0  0.6312609441961078  0.6415410733814779  0.902583978087682  1.0000
  C   C17       1.0  0.409776291579346  0.09078223593273956  0.37253837576613236  1.0000
  C   C18       1.0  0.5902237091414123  0.9092177643139344  0.6274616240784396  1.0000
  C   C19       1.0  0.1982973904974928  0.14317503514396268  0.44015246539771297  1.0000
  C   C20       1.0  0.8017026102232654  0.8568249651027111  0.5598475344468592  1.0000
  C   C21       1.0  0.26570483996842814  0.27239686599900226  0.4358333107472013  1.0000
  C   C22       1.0  0.7342951588648841  0.7276031333838417  0.564166689094906  1.0000
  C   C23       1.0  0.03847371565237723  0.3354172031989362  0.4871872760208106  1.0000
  C   C24       1.0  0.9615262850683809  0.6645827970477378  0.5128127238237613  1.0000
  C   C25       1.0  0.1131342974445485  0.4656397052771754  0.47790614725335845  1.0000
  C   C26       1.0  0.8868657032762096  0.5343602949694984  0.5220938525912135  1.0000
  N   N1        1.0  0.7270524952168675  0.8905157232280816  0.2449851179189067  1.0000
  N   N2        1.0  0.27294750356331887  0.10948427702141579  0.7550148819248352  1.0000
  N   N3        1.0  0.9720545975610899  0.06983238773519436  0.17218906992974445  1.0000
  N   N4        1.0  0.027945403212794147  0.9301676116448263  0.8278109299131927  1.0000
  O   O1        1.0  0.3775025647783051  0.1287622363425305  0.059734549986343435  1.0000
  O   O2        1.0  0.6224974340018813  0.8712377639069669  0.9402654498573985  1.0000
  O   O3        1.0  0.3584240741442388  0.9790300238159998  0.3714752813868051  1.0000
  O   O4        1.0  0.6415759266296454  0.020969975564020936  0.6285247184561322  1.0000
  O   O5        1.0  0.6153383638037546  0.14898719667611104  0.3205940065374549  1.0000
  O   O6        1.0  0.38466163691700356  0.851012803570563  0.6794059933071172  1.0000
  Br  Br1       1.0  0.7733302479885559  0.5447993533141875  0.21382073276759342  1.0000
  Br  Br2       1.0  0.2266697527322025  0.4552006469324864  0.7861792670769786  1.0000
