data_image0
_chemical_formula_structural       H88C128I16
_chemical_formula_sum              "H88 C128 I16"
_cell_length_a       9.776526226877293
_cell_length_b       16.858979915335457
_cell_length_c       17.970128531566402
_cell_angle_alpha    90.0
_cell_angle_beta     90.0
_cell_angle_gamma    90.0

_space_group_name_H-M_alt    "P 1"
_space_group_IT_number       1

loop_
  _space_group_symop_operation_xyz
  'x, y, z'

loop_
  _atom_site_type_symbol
  _atom_site_label
  _atom_site_symmetry_multiplicity
  _atom_site_fract_x
  _atom_site_fract_y
  _atom_site_fract_z
  _atom_site_occupancy
  H   H1        1.0  0.2626510593241852  0.8350016377441003  0.05004353187682024  1.0000
  H   H2        1.0  0.23734894032409004  0.16499836193942402  0.5500435315549972  1.0000
  H   H3        1.0  0.7626510589724604  0.6649983620777641  0.9499564680360129  1.0000
  H   H4        1.0  0.7373489409952235  0.3350016376057603  0.44995646835783576  1.0000
  H   H5        1.0  0.7804623935875387  0.8190966202788331  0.9151871752676023  1.0000
  H   H6        1.0  0.7195376063801452  0.18090337999784697  0.41518717558942525  1.0000
  H   H7        1.0  0.2804623939392634  0.680903380136187  0.0848128246452308  1.0000
  H   H8        1.0  0.21953760673186998  0.31909662014049306  0.5848128248798868  1.0000
  H   H9        1.0  0.8207183987233944  0.011337260080969545  0.9724061733506599  1.0000
  H   H10       1.0  0.6792816012442895  0.9886627396025549  0.47240617311600397  1.0000
  H   H11       1.0  0.3207183980522609  0.4886627400573705  0.027593826562173008  1.0000
  H   H12       1.0  0.17928160159601433  0.5113372602193095  0.5275938267968291  1.0000
  H   H13       1.0  0.034525016572047956  0.004313345194382305  0.7504663272892277  1.0000
  H   H14       1.0  0.46547498307622726  0.9956866550822978  0.2504663276110507  1.0000
  H   H15       1.0  0.5345250172431814  0.4956866549439577  0.24953367262360532  1.0000
  H   H16       1.0  0.9654749827245024  0.5043133453327223  0.7495336723017823  1.0000
  H   H17       1.0  0.8954041841501902  0.8057037862441585  0.10429625290146048  1.0000
  H   H18       1.0  0.6045958168403519  0.19429621403252156  0.6042962525796375  1.0000
  H   H19       1.0  0.3954041834790568  0.6942962135777059  0.8957037475678516  1.0000
  H   H20       1.0  0.10459581616921843  0.30570378610581844  0.3957037473331956  1.0000
  H   H21       1.0  0.11414100510794917  0.7549546789851992  0.9012258983875125  1.0000
  H   H22       1.0  0.3858589945403261  0.24504532129148088  0.40122589870933545  1.0000
  H   H23       1.0  0.6141410057790826  0.7450453214298208  0.0987741015253206  1.0000
  H   H24       1.0  0.8858589941886013  0.25495467884685913  0.5987741017599766  1.0000
  H   H25       1.0  0.11157799352095897  0.6117540700442067  0.9315825354611844  1.0000
  H   H26       1.0  0.38842200612731625  0.3882459302324734  0.4315825357830075  1.0000
  H   H27       1.0  0.6115779941920924  0.8882459303708135  0.06841746445164858  1.0000
  H   H28       1.0  0.8884220057755915  0.11175406990586662  0.5684174641298255  1.0000
  H   H29       1.0  0.22218846444948673  0.0506137319271503  0.06510247091137658  1.0000
  H   H30       1.0  0.27781153622164667  0.9493862683495298  0.5651024711460326  1.0000
  H   H31       1.0  0.7221884640977619  0.4493862682111897  0.9348975290014564  1.0000
  H   H32       1.0  0.7778115358699219  0.5506137320654904  0.43489752876680043  1.0000
  H   H33       1.0  0.12170800163444746  0.9755812043550166  0.87660477621675  1.0000
  H   H34       1.0  0.3782919980138278  0.024418795328507784  0.376604776538573  1.0000
  H   H35       1.0  0.6217080012827226  0.5244187954668478  0.12339522369608304  1.0000
  H   H36       1.0  0.8782919986849612  0.47558120480983224  0.62339522337426  1.0000
  H   H37       1.0  0.3763198885392994  0.7987012866508935  0.16807608775276386  1.0000
  H   H38       1.0  0.12368011110897585  0.2012987136257866  0.6680760879874199  1.0000
  H   H39       1.0  0.8763198881875746  0.7012987131709709  0.8319239121600692  1.0000
  H   H40       1.0  0.6236801117801092  0.29870128651255345  0.3319239119254131  1.0000
  H   H41       1.0  0.09939292417879342  0.9522295139219619  0.28784662340693434  1.0000
  H   H42       1.0  0.40060707649234  0.047770486354718165  0.7878466236415904  1.0000
  H   H43       1.0  0.5993929238270687  0.5477704864930582  0.7121533765058987  1.0000
  H   H44       1.0  0.9006070761406153  0.45222951378362186  0.2121533768277217  1.0000
  H   H45       1.0  0.9871670638460133  0.9882480703856088  0.16946861034691466  1.0000
  H   H46       1.0  0.5128329361216706  0.011751929297915515  0.6694686100250916  1.0000
  H   H47       1.0  0.48716706419773803  0.5117519294362555  0.8305313901223975  1.0000
  H   H48       1.0  0.012832935450537167  0.4882480702472688  0.3305313898877414  1.0000
  H   H49       1.0  0.790726892211203  0.15532411113545688  0.9561524615596214  1.0000
  H   H50       1.0  0.7092731077564809  0.8446758885480675  0.45615246132496534  1.0000
  H   H51       1.0  0.29072689154006953  0.3446758884097274  0.043847538909690655  1.0000
  H   H52       1.0  0.20927310810820568  0.6553241112737969  0.5438475385878676  1.0000
  H   H53       1.0  0.6933306956580496  0.8461914209307093  0.7890133554188935  1.0000
  H   H54       1.0  0.8066693043096342  0.1538085793459707  0.2890133557407165  1.0000
  H   H55       1.0  0.19333069600977434  0.6538085794843107  0.21098664449393953  1.0000
  H   H56       1.0  0.3066693046613591  0.3461914207923693  0.7109866441721165  1.0000
  H   H57       1.0  0.8879115811232973  0.6630092482542465  0.1336036387153611  1.0000
  H   H58       1.0  0.6120884188443867  0.3369907514292779  0.6336036389500171  1.0000
  H   H59       1.0  0.3879115814750219  0.8369907515676179  0.866396361197472  1.0000
  H   H60       1.0  0.11208841817325327  0.16300924870906208  0.36639636151929494  1.0000
  H   H61       1.0  0.1919373636866276  0.1943229552708565  0.05005070155286199  1.0000
  H   H62       1.0  0.3080626359616477  0.8056770444126679  0.550050701787518  1.0000
  H   H63       1.0  0.6919373633349029  0.30567704427432785  0.949949298359971  1.0000
  H   H64       1.0  0.808062636632781  0.6943229554091965  0.449949298125315  1.0000
  H   H65       1.0  0.03943847549245053  0.7737994615043958  0.30112251509468313  1.0000
  H   H66       1.0  0.4605615251786829  0.2262005381791286  0.8011225153293391  1.0000
  H   H67       1.0  0.5394384751407257  0.7262005383174686  0.6988774848181499  1.0000
  H   H68       1.0  0.9605615248269581  0.27379946136605576  0.19887748458349386  1.0000
  H   H69       1.0  0.8638793405761305  0.8790327110194629  0.2820551283813321  1.0000
  H   H70       1.0  0.6361206593915535  0.12096728925721724  0.7820551286159881  1.0000
  H   H71       1.0  0.3638793409278552  0.6209672888024015  0.717944871531501  1.0000
  H   H72       1.0  0.13612065872042006  0.3790327108811228  0.21794487129684492  1.0000
  H   H73       1.0  0.6221294526146561  0.8418194879685641  0.2578937842241485  1.0000
  H   H74       1.0  0.8778705473530276  0.15818051230811594  0.7578937844588045  1.0000
  H   H75       1.0  0.12212945194352273  0.6581805124464559  0.7421062156886845  1.0000
  H   H76       1.0  0.3778705477047525  0.34181948783022403  0.2421062154540285  1.0000
  H   H77       1.0  0.556285220720685  0.6993800383660632  0.24938451676223844  1.0000
  H   H78       1.0  0.9437147792469989  0.3006199613174612  0.7493845169968945  1.0000
  H   H79       1.0  0.05628522004955151  0.8006199614558012  0.7506154831505947  1.0000
  H   H80       1.0  0.44371477959872374  0.19938003822772313  0.25061548347241763  1.0000
  H   H81       1.0  0.7321390956147679  0.594393454427495  0.26720789345302726  1.0000
  H   H82       1.0  0.767860904352916  0.4056065452560293  0.7672078936876833  1.0000
  H   H83       1.0  0.23213909596649263  0.9056065453943694  0.7327921064598059  1.0000
  H   H84       1.0  0.2678609047046408  0.09439345488231073  0.2327921067816288  1.0000
  H   H85       1.0  0.973018987444424  0.6317310895134358  0.2947524193105089  1.0000
  H   H86       1.0  0.5269810125232598  0.36826891076324425  0.7947524189886859  1.0000
  H   H87       1.0  0.47301898779614887  0.8682689103084286  0.7052475806023242  1.0000
  H   H88       1.0  0.026981011852126313  0.1317310893750958  0.20524758092414713  1.0000
  C   C1        1.0  0.005945687522444937  0.8766574196197991  0.9811313708207047  1.0000
  C   C2        1.0  0.4940543121258303  0.12334258006372527  0.48113137058604866  1.0000
  C   C3        1.0  0.5059456881935784  0.6233425802020652  0.018868629092128376  1.0000
  C   C4        1.0  0.9940543117741054  0.3766574200746147  0.5188686293267843  1.0000
  C   C5        1.0  0.24313824407948725  0.8721083662141278  0.23542200895049661  1.0000
  C   C6        1.0  0.25686175556878793  0.12789163346939653  0.7354220091851527  1.0000
  C   C7        1.0  0.7431382437277625  0.6278916336077366  0.7645779909623364  1.0000
  C   C8        1.0  0.7568617562399214  0.3721083660757878  0.26457799072768035  1.0000
  C   C9        1.0  0.005928194601541208  0.7911029716494339  0.0006828198239342493  1.0000
  C   C10       1.0  0.4940718060695923  0.20889702803409055  0.5006828200585902  1.0000
  C   C11       1.0  0.5059281942498164  0.7088970281724305  0.9993171800888989  1.0000
  C   C12       1.0  0.9940718057178675  0.2911029721042495  0.4993171804107218  1.0000
  C   C13       1.0  0.024731859188928944  0.019708098690939615  0.01900751235028738  1.0000
  C   C14       1.0  0.4752681404593463  0.9802919015857404  0.5190075120284644  1.0000
  C   C15       1.0  0.5247318598600623  0.48029190144740036  0.9809924881190246  1.0000
  C   C16       1.0  0.9752681401076214  0.5197080988292796  0.48099248788436866  1.0000
  C   C17       1.0  0.22608944615965204  0.8601483424752902  0.10221704128456154  1.0000
  C   C18       1.0  0.2739105534886232  0.13985165780138994  0.6022170409627385  1.0000
  C   C19       1.0  0.7260894458079272  0.63985165793973  0.8977829586282715  1.0000
  C   C20       1.0  0.7739105541597565  0.36014834233695014  0.39778295895009447  1.0000
  C   C21       1.0  0.8370362601291583  0.8591199131108166  0.8788804794721923  1.0000
  C   C22       1.0  0.6629637398385256  0.14088008716586342  0.3788804797940152  1.0000
  C   C23       1.0  0.33703626048088303  0.6408800867110478  0.12111952044064085  1.0000
  C   C24       1.0  0.1629637401902504  0.3591199129724766  0.6211195206752969  1.0000
  C   C25       1.0  0.903153825305114  0.051092629822547635  0.9889664956364606  1.0000
  C   C26       1.0  0.5968461746625698  0.9489073704541324  0.4889664959582836  1.0000
  C   C27       1.0  0.40315382565683877  0.4489073703157924  0.011033504276372424  1.0000
  C   C28       1.0  0.09684617501429466  0.5510926299608876  0.5110335039545494  1.0000
  C   C29       1.0  0.9786106044187347  0.963843200573424  0.786632946735402  1.0000
  C   C30       1.0  0.5213893955489491  0.036156799703256005  0.286632947057225  1.0000
  C   C31       1.0  0.4786106047704595  0.536156799841596  0.2133670531774311  1.0000
  C   C32       1.0  0.021389394877815698  0.46384320043508404  0.7133670528556081  1.0000
  C   C33       1.0  0.9428525476317626  0.7636967512066588  0.06610506307249284  1.0000
  C   C34       1.0  0.5571474523359212  0.23630324847686554  0.5661050627506699  1.0000
  C   C35       1.0  0.44285254798348744  0.7363032486152056  0.9338949373968192  1.0000
  C   C36       1.0  0.05714745166478776  0.2636967510683188  0.4338949371621632  1.0000
  C   C37       1.0  0.11480233407592404  0.9126905760177977  0.10136633284510067  1.0000
  C   C38       1.0  0.3851976655723512  0.08730942425888236  0.6013663330797567  1.0000
  C   C39       1.0  0.6148023337241992  0.5873094238040667  0.8986336670677324  1.0000
  C   C40       1.0  0.8851976662434846  0.4126905758794577  0.39863366683307633  1.0000
  C   C41       1.0  0.9910138514602692  0.18369189746664333  0.0010781225056886795  1.0000
  C   C42       1.0  0.5089861485074146  0.8163081028100366  0.5010781227403447  1.0000
  C   C43       1.0  0.491013851811994  0.3163081026716967  0.9989218774071444  1.0000
  C   C44       1.0  0.008986147836281221  0.6836918976049834  0.49892187717248837  1.0000
  C   C45       1.0  0.04553435030697917  0.933769540568716  0.030790331244880082  1.0000
  C   C46       1.0  0.4544656493412961  0.06623045911480835  0.5307903314795361  1.0000
  C   C47       1.0  0.5455343509781125  0.5662304592531484  0.969209668667953  1.0000
  C   C48       1.0  0.9544656489895712  0.43376954043037597  0.46920966843329687  1.0000
  C   C49       1.0  0.06518296020605545  0.7350246380404108  0.9524860030874819  1.0000
  C   C50       1.0  0.43481704046507796  0.2649753622362692  0.4524860034093047  1.0000
  C   C51       1.0  0.5651829598543306  0.7649753617814535  0.047513996825351255  1.0000
  C   C52       1.0  0.9348170401133532  0.23502463790207082  0.5475139965035282  1.0000
  C   C53       1.0  0.0644373988654679  0.6543039338913946  0.9693754137261904  1.0000
  C   C54       1.0  0.43556260078280734  0.34569606638528544  0.46937541349153444  1.0000
  C   C55       1.0  0.5644373995366013  0.8456960665236255  0.030624586743121622  1.0000
  C   C56       1.0  0.9355626004310825  0.1543039337530546  0.5306245864212986  1.0000
  C   C57       1.0  0.1271080260168157  0.07302815865389814  0.04145530059461764  1.0000
  C   C58       1.0  0.3728919746543177  0.9269718410296263  0.5414553008292736  1.0000
  C   C59       1.0  0.6271080256650909  0.4269718408912862  0.9585446993182155  1.0000
  C   C60       1.0  0.872891974302593  0.5730281587922381  0.4585446990835594  1.0000
  C   C61       1.0  0.9570780901989843  0.895252039316501  0.9052307256136272  1.0000
  C   C62       1.0  0.5429219097686997  0.10474796096017898  0.4052307259354503  1.0000
  C   C63       1.0  0.4570780895278507  0.6047479605053634  0.09476927429920577  1.0000
  C   C64       1.0  0.0429219101204245  0.39525203917816104  0.5947692745338619  1.0000
  C   C65       1.0  0.8584319384248849  0.9273686295680547  0.7620549416741604  1.0000
  C   C66       1.0  0.641568061542799  0.07263137070862542  0.26205494143950436  1.0000
  C   C67       1.0  0.35843193877660956  0.5726313708469655  0.2379450582386726  1.0000
  C   C68       1.0  0.14156806087166562  0.4273686294297146  0.7379450584733287  1.0000
  C   C69       1.0  0.027588186615661526  0.9473129798009026  0.8577674396108724  1.0000
  C   C70       1.0  0.4724118130326137  0.052687020475777446  0.35776743937621647  1.0000
  C   C71       1.0  0.5275881862639368  0.5526870206141176  0.14223256030196055  1.0000
  C   C72       1.0  0.9724118137037472  0.4473129796625626  0.6422325605366166  1.0000
  C   C73       1.0  0.2905690103086198  0.839813703504153  0.16863542932799763  1.0000
  C   C74       1.0  0.20943099036251364  0.16018629617937147  0.6686354295626538  1.0000
  C   C75       1.0  0.790569009956895  0.6601862963177114  0.8313645705848354  1.0000
  C   C76       1.0  0.7094309900107889  0.33981370336581285  0.33136457035017935  1.0000
  C   C77       1.0  0.0008261359722838672  0.629053566304636  0.034863575900388376  1.0000
  C   C78       1.0  0.4991738636759913  0.370946433972044  0.5348635755785653  1.0000
  C   C79       1.0  0.5008261366434174  0.8709464341103841  0.9651364245689237  1.0000
  C   C80       1.0  0.9991738633242665  0.129053566166296  0.4651364243342677  1.0000
  C   C81       1.0  0.13543858311961335  0.9265842392866491  0.23576945666012386  1.0000
  C   C82       1.0  0.3645614165286619  0.07341576099003094  0.7357694563383008  1.0000
  C   C83       1.0  0.6354385827678886  0.573415761128371  0.7642305438091882  1.0000
  C   C84       1.0  0.8645614171997953  0.42658423914830906  0.2642305435745322  1.0000
  C   C85       1.0  0.07291777196282333  0.9468866485497774  0.1688936255891902  1.0000
  C   C86       1.0  0.42708222768545195  0.05311335172690268  0.6688936252673672  1.0000
  C   C87       1.0  0.5729177716110985  0.5531133518652427  0.8311063748801218  1.0000
  C   C88       1.0  0.9270822283565853  0.4468866484114373  0.3311063746454659  1.0000
  C   C89       1.0  0.885624843535611  0.13254677633059725  0.9795319548816639  1.0000
  C   C90       1.0  0.6143751564320729  0.8674532233529271  0.4795319552034868  1.0000
  C   C91       1.0  0.38562484286447757  0.36745322321458707  0.020468045031169224  1.0000
  C   C92       1.0  0.11437515678379764  0.6325467764689373  0.5204680447093463  1.0000
  C   C93       1.0  0.7868277894915475  0.8748786281300055  0.8079241005147373  1.0000
  C   C94       1.0  0.7131722104761364  0.12512137214667457  0.30792410028008116  1.0000
  C   C95       1.0  0.2868277898432723  0.6251213716918589  0.19207589939809583  1.0000
  C   C96       1.0  0.21317220980500293  0.37487862799166544  0.6920758996327518  1.0000
  C   C97       1.0  0.9388862144884632  0.6830817954486457  0.08314909475328917  1.0000
  C   C98       1.0  0.5611137854792206  0.31691820423487865  0.5831490944314661  1.0000
  C   C99       1.0  0.4388862138173298  0.8169182043732187  0.9168509051595439  1.0000
  C   C100      1.0  0.06111378583094544  0.18308179531030566  0.4168509054813669  1.0000
  C   C101      1.0  0.1107341815361539  0.1543351414537958  0.03292051968135997  1.0000
  C   C102      1.0  0.3892658181121213  0.8456648582297286  0.532920519359537  1.0000
  C   C103      1.0  0.6107341822072873  0.3456648586845442  0.967079480231473  1.0000
  C   C104      1.0  0.8892658177603966  0.6543351415921358  0.46707948055329607  1.0000
  C   C105      1.0  0.9337746258893743  0.7576124922233086  0.2891587770711989  1.0000
  C   C106      1.0  0.5662253740783096  0.24238750746021576  0.789158776749376  1.0000
  C   C107      1.0  0.4337746262410991  0.7423875075985557  0.7108412228416341  1.0000
  C   C108      1.0  0.06622537443003439  0.2576124920849686  0.21084122316345713  1.0000
  C   C109      1.0  0.8352131002882939  0.8166232428734737  0.2787461514925164  1.0000
  C   C110      1.0  0.66478689967939  0.18337675681005075  0.7787461517271724  1.0000
  C   C111      1.0  0.3352131006400187  0.6833767569483907  0.7212538484203166  1.0000
  C   C112      1.0  0.16478690003111474  0.3166232427351336  0.22125384818566057  1.0000
  C   C113      1.0  0.6995080656766528  0.7957296448165955  0.26436212248872004  1.0000
  C   C114      1.0  0.800491934291031  0.20427035546008457  0.764362122166897  1.0000
  C   C115      1.0  0.1995080660283776  0.7042703550052689  0.735637877424113  1.0000
  C   C116      1.0  0.30049193464275586  0.29572964467825547  0.235637877745936  1.0000
  C   C117      1.0  0.6624466983165478  0.7157830141919287  0.25988467760797457  1.0000
  C   C118      1.0  0.8375533016511361  0.2842169860847513  0.7598846778426307  1.0000
  C   C119      1.0  0.16244669764541442  0.7842169862230914  0.7401153223048584  1.0000
  C   C120      1.0  0.33755330200286077  0.21578301405358868  0.24011532262668145  1.0000
  C   C121      1.0  0.7610639195693725  0.656781116390557  0.27019094390287995  1.0000
  C   C122      1.0  0.7389360803983115  0.34321888388612304  0.770190944137536  1.0000
  C   C123      1.0  0.261063918898239  0.8432188840244631  0.729809056009953  1.0000
  C   C124      1.0  0.23893608075003622  0.15678111625221702  0.22980905633177612  1.0000
  C   C125      1.0  0.8965633382031754  0.6777315138507686  0.28514512965218886  1.0000
  C   C126      1.0  0.6034366617645085  0.32226848642591155  0.7851451298868449  1.0000
  C   C127      1.0  0.3965633385549001  0.8222684865642516  0.7148548702606442  1.0000
  C   C128      1.0  0.10343666109337513  0.17773151371242848  0.21485487002598813  1.0000
  I   I1        1.0  0.9806347466898  0.30701674692024267  0.9829675135028251  1.0000
  I   I2        1.0  0.519365253277884  0.6929832527632817  0.48296751382464814  1.0000
  I   I3        1.0  0.4806347460186665  0.19298325262494165  0.017032486410007902  1.0000
  I   I4        1.0  0.019365253629608687  0.8070167470585827  0.5170324860881849  1.0000
  I   I5        1.0  0.3294792010217792  0.8361307149537294  0.3369600723424645  1.0000
  I   I6        1.0  0.17052079862649605  0.16386928532295061  0.8369600725771206  1.0000
  I   I7        1.0  0.8294792016929126  0.6638692854612906  0.6630399275703686  1.0000
  I   I8        1.0  0.6705207982747713  0.33613071481538936  0.16303992733571251  1.0000
  I   I9        1.0  0.7863700041907015  0.948612358536153  0.6534819903692911  1.0000
  I   I10       1.0  0.7136299957769824  0.051387641147371384  0.1534819906911142  1.0000
  I   I11       1.0  0.2863700035195681  0.5513876412857114  0.34651800954354184  1.0000
  I   I12       1.0  0.21362999612870712  0.44861235899096863  0.8465180092217188  1.0000
  I   I13       1.0  0.9926832552567968  0.5069168059347529  0.060237258075173286  1.0000
  I   I14       1.0  0.5073167447108871  0.49308319374877146  0.5602372583098293  1.0000
  I   I15       1.0  0.4926832545856633  0.9930831938871116  0.9397627418376598  1.0000
  I   I16       1.0  0.007316745062611881  0.006916805796412844  0.4397627421594828  1.0000
