data_image0
_chemical_formula_structural       H26C30N4O6Cl4Br2
_chemical_formula_sum              "H26 C30 N4 O6 Cl4 Br2"
_cell_length_a       3.869278830011669
_cell_length_b       12.565177188645075
_cell_length_c       16.825715016316984
_cell_angle_alpha    72.93399659095647
_cell_angle_beta     86.44939182572841
_cell_angle_gamma    85.88015765566556

_space_group_name_H-M_alt    "P 1"
_space_group_IT_number       1

loop_
  _space_group_symop_operation_xyz
  'x, y, z'

loop_
  _atom_site_type_symbol
  _atom_site_label
  _atom_site_symmetry_multiplicity
  _atom_site_fract_x
  _atom_site_fract_y
  _atom_site_fract_z
  _atom_site_occupancy
  H   H1        1.0  0.4790768785879547  0.3481206429927032  0.2526976977605247  1.0000
  H   H2        1.0  0.5209231206574739  0.6518793572460377  0.7473023026619243  1.0000
  H   H3        1.0  0.7862681241090976  0.5242759442918897  0.042502738924167  1.0000
  H   H4        1.0  0.21373187543333777  0.4757240553904547  0.9574972608763479  1.0000
  H   H5        1.0  0.6219844090403179  0.7254264349276669  0.9958596165600306  1.0000
  H   H6        1.0  0.3780155903169326  0.27457356555272233  0.0041403832401434104  1.0000
  H   H7        1.0  0.07597322267132717  0.6879156566128021  0.23430160484553386  1.0000
  H   H8        1.0  0.9240267768711082  0.31208434306954264  0.765698394954981  1.0000
  H   H9        1.0  0.5633236366385674  0.17140036306768658  0.2371990329219578  1.0000
  H   H10       1.0  0.436676362606861  0.8285996371710542  0.7628009675004912  1.0000
  H   H11       1.0  0.9749001708969508  0.19143003999085953  0.2651822019034543  1.0000
  H   H12       1.0  0.02509982846029958  0.8085699604895296  0.7348177978967199  1.0000
  H   H13       1.0  0.0012930518732445662  0.03156127332623427  0.20431619003636392  1.0000
  H   H14       1.0  0.9987069476691908  0.9684387263561105  0.795683809764151  1.0000
  H   H15       1.0  0.24229634190233543  0.13996189903351444  0.13792649845511684  1.0000
  H   H16       1.0  0.7577036599275927  0.8600381012048878  0.8620735019674808  1.0000
  H   H17       1.0  0.8253129253667197  0.11858843891843404  0.1106712776242614  1.0000
  H   H18       1.0  0.1746870738787089  0.8814115613203068  0.8893287227981876  1.0000
  H   H19       1.0  0.9450902657336514  0.1305321426923065  0.4608894067072822  1.0000
  H   H20       1.0  0.05490973380878407  0.8694678569900381  0.5391105930932327  1.0000
  H   H21       1.0  0.4834341543579861  0.37779575477858246  0.6304025956747487  1.0000
  H   H22       1.0  0.516565847657127  0.6222042446617752  0.36959740474818986  1.0000
  H   H23       1.0  0.7760518999706914  0.45818448168328335  0.4920995574736318  1.0000
  H   H24       1.0  0.22394809945992217  0.5418155177574131  0.5079004429491579  1.0000
  H   H25       1.0  0.17702771345928758  0.48621133385136506  0.29884014171863976  1.0000
  H   H26       1.0  0.8229722860831479  0.5137886658309795  0.7011598580818752  1.0000
  C   C1        1.0  0.5235018951908371  0.49891689946965617  0.16322341481642755  1.0000
  C   C2        1.0  0.47649810423977634  0.5010830999710401  0.8367765856063621  1.0000
  C   C3        1.0  0.6308946121152059  0.563009898193014  0.08328047006697102  1.0000
  C   C4        1.0  0.3691053898999074  0.4369901012473436  0.9167195303559674  1.0000
  C   C5        1.0  0.5359670640421034  0.6760870007970288  0.057668287701042896  1.0000
  C   C6        1.0  0.4640329355003319  0.3239129988853159  0.9423317120994721  1.0000
  C   C7        1.0  0.3346253687054244  0.7230656739978417  0.11188466119118864  1.0000
  C   C8        1.0  0.6653746334215107  0.2769343256841641  0.888115338609475  1.0000
  C   C9        1.0  0.23596780289344027  0.6553379604642371  0.1901132653548221  1.0000
  C   C10       1.0  0.7640321963519883  0.34466203977450366  0.8098867350676269  1.0000
  C   C11       1.0  0.800582797434494  0.31636606804525785  0.15835561734193856  1.0000
  C   C12       1.0  0.19941720210794162  0.6836339316370866  0.8416443824585764  1.0000
  C   C13       1.0  0.822828171323214  0.195646518799148  0.2109738520599427  1.0000
  C   C14       1.0  0.17717182803403647  0.8043534816812411  0.7890261477402315  1.0000
  C   C15       1.0  0.9813770882432077  0.11715414806584849  0.16330968201054138  1.0000
  C   C16       1.0  0.018622911002220868  0.8828458521728925  0.8366903184119076  1.0000
  C   C17       1.0  0.8805971959033471  0.2995042255593615  0.46810209852792856  1.0000
  C   C18       1.0  0.11940280345390342  0.7004957749210278  0.5318979012722457  1.0000
  C   C19       1.0  0.843799755955071  0.18449943776147087  0.4980533827933835  1.0000
  C   C20       1.0  0.1562002458748573  0.8155005624769313  0.5019466176292141  1.0000
  C   C21       1.0  0.6766986078000661  0.13905976079193602  0.5751167305579947  1.0000
  C   C22       1.0  0.32330139144536246  0.8609402394468048  0.42488326986445424  1.0000
  C   C23       1.0  0.5502635773414141  0.208905053172888  0.6234907283526419  1.0000
  C   C24       1.0  0.4497364222010215  0.7910949465094566  0.376509271447873  1.0000
  C   C25       1.0  0.5854080059414947  0.32387829984487115  0.5932006061827156  1.0000
  C   C26       1.0  0.4145919936009408  0.6761216998374734  0.4067993936177992  1.0000
  C   C27       1.0  0.7480895597498809  0.3688414106279222  0.5157461275638168  1.0000
  C   C28       1.0  0.25191043968073273  0.6311585888127742  0.48425387285897303  1.0000
  C   C29       1.0  0.06434090016170958  0.34620549807473255  0.38611908576319726  1.0000
  C   C30       1.0  0.9356590993807259  0.653794501607612  0.6138809140373177  1.0000
  N   N1        1.0  0.32972392445634746  0.5460827844953698  0.2149321043782136  1.0000
  N   N2        1.0  0.6702760749009029  0.45391721598501916  0.7850678954219606  1.0000
  N   N3        1.0  0.6010203487452793  0.38554799868291084  0.19566276513819506  1.0000
  N   N4        1.0  0.3989796507971561  0.6144520009994338  0.8043372346623199  1.0000
  O   O1        1.0  0.953043384682606  0.34922997760896074  0.08964310287630782  1.0000
  O   O2        1.0  0.046956614748007545  0.6507700218317356  0.910356897546482  1.0000
  O   O3        1.0  0.04296389684910215  0.4562922595781698  0.35868845589830256  1.0000
  O   O4        1.0  0.9570361025081482  0.5437077409022192  0.6413115439018717  1.0000
  O   O5        1.0  0.22455169920551546  0.28556950157537175  0.34787398030478717  1.0000
  O   O6        1.0  0.775448300225098  0.7144304978653248  0.6521260201180025  1.0000
  Cl  Cl1       1.0  0.6261694570776375  0.9976190157851774  0.6101846174703963  1.0000
  Cl  Cl2       1.0  0.37383054246479785  0.002380983897167221  0.3898153823301186  1.0000
  Cl  Cl3       1.0  0.35696748172220666  0.15448462000212074  0.7203240358449116  1.0000
  Cl  Cl4       1.0  0.643032517523222  0.84551538023662  0.27967596457753746  1.0000
  Br  Br1       1.0  0.18969086115909778  0.8763946700234249  0.07969258372531837  1.0000
  Br  Br2       1.0  0.8103091381981526  0.12360533045696424  0.9203074160748558  1.0000
