data_image0
_chemical_formula_structural       H32C24N4O6Br2
_chemical_formula_sum              "H32 C24 N4 O6 Br2"
_cell_length_a       5.264520408303215
_cell_length_b       8.677713050094733
_cell_length_c       14.817399662496749
_cell_angle_alpha    101.8633979569252
_cell_angle_beta     92.86629391941757
_cell_angle_gamma    101.42632569464666

_space_group_name_H-M_alt    "P 1"
_space_group_IT_number       1

loop_
  _space_group_symop_operation_xyz
  'x, y, z'

loop_
  _atom_site_type_symbol
  _atom_site_label
  _atom_site_symmetry_multiplicity
  _atom_site_fract_x
  _atom_site_fract_y
  _atom_site_fract_z
  _atom_site_occupancy
  H   H1        1.0  0.37984276683798274  0.37510412295028533  0.26929272526369163  1.0000
  H   H2        1.0  0.6201572337079261  0.6248958768962009  0.7307072749729364  1.0000
  H   H3        1.0  0.9469675749314037  0.3359582381170188  0.42262683131056183  1.0000
  H   H4        1.0  0.05303242542938849  0.6640417614617022  0.57737316823335  1.0000
  H   H5        1.0  0.12400784993483946  0.08786718995400686  0.38692893524312655  1.0000
  H   H6        1.0  0.8759921487091115  0.9121328098848206  0.6130710649935777  1.0000
  H   H7        1.0  0.5426027242615249  0.9056725917895619  0.15302264535529486  1.0000
  H   H8        1.0  0.45739727628438404  0.09432740805692434  0.8469773548813333  1.0000
  H   H9        1.0  0.2204562231059086  0.5795574597388619  0.38961298975518266  1.0000
  H   H10       1.0  0.7795437772548837  0.42044253983985913  0.6103870097887293  1.0000
  H   H11       1.0  0.4037331637815859  0.6506073493076139  0.3048903950132231  1.0000
  H   H12       1.0  0.596266836764323  0.3493926505388724  0.695109605223405  1.0000
  H   H13       1.0  0.37210548592315434  0.8792075658355004  0.43254486869915565  1.0000
  H   H14       1.0  0.6278945146227545  0.12079243401098579  0.5674551315374725  1.0000
  H   H15       1.0  0.7021164851098577  0.859920762199612  0.4336694015658489  1.0000
  H   H16       1.0  0.2978835135340933  0.1400792376392155  0.5663305986708554  1.0000
  H   H17       1.0  0.5019305207374605  0.7881160796608632  0.515561106420111  1.0000
  H   H18       1.0  0.4980694801795474  0.21188392136071685  0.48443889381506183  1.0000
  H   H19       1.0  0.310260524205184  0.13801721987922483  0.15759118121955787  1.0000
  H   H20       1.0  0.689739474438767  0.8619827799596027  0.8424088190171465  1.0000
  H   H21       1.0  0.6977613794422779  0.14772019726594018  0.04194400686961404  1.0000
  H   H22       1.0  0.3022386211036309  0.8522798025805459  0.9580559933670141  1.0000
  H   H23       1.0  0.9304907129397753  0.2378540397100298  0.9776575807508622  1.0000
  H   H24       1.0  0.06950928760613358  0.7621459601364563  0.022342419485765833  1.0000
  H   H25       1.0  0.9078874830727813  0.5136811469333814  0.07677429915803267  1.0000
  H   H26       1.0  0.09211251747312746  0.4863188529131048  0.9232257010785955  1.0000
  H   H27       1.0  0.6548437588751392  0.41893922670994815  0.13122098587470168  1.0000
  H   H28       1.0  0.3451562420418686  0.5810607743116321  0.8687790143604712  1.0000
  H   H29       1.0  0.6390355352491096  0.4139343155724543  0.9227901209547875  1.0000
  H   H30       1.0  0.3609644652967992  0.5860656842740318  0.0772098792818406  1.0000
  H   H31       1.0  0.3822395573235587  0.3181914099653451  0.9770727517372731  1.0000
  H   H32       1.0  0.6177604432223501  0.681808589881141  0.022927248499354968  1.0000
  C   C1        1.0  0.6503152311139225  0.2522797907112419  0.3057103617452426  1.0000
  C   C2        1.0  0.3496847675300284  0.7477202091275855  0.6942896384914616  1.0000
  C   C3        1.0  0.8625156797372814  0.23932085458268798  0.36344578614832157  1.0000
  C   C4        1.0  0.1374843206235108  0.760679144996033  0.6365542133955904  1.0000
  C   C5        1.0  0.959972849613119  0.10018108781965535  0.3432105034589486  1.0000
  C   C6        1.0  0.040027150747673094  0.8998189117590656  0.6567894960849632  1.0000
  C   C7        1.0  0.8456709537219514  0.9773772301750175  0.26716984746471406  1.0000
  C   C8        1.0  0.15432904663884064  0.02262276940370363  0.7328301520791979  1.0000
  C   C9        1.0  0.6373127009525181  0.9982409579776338  0.21312842671802035  1.0000
  C   C10       1.0  0.3626872995933907  0.001759041868852363  0.7868715735186077  1.0000
  C   C11       1.0  0.5963485126930286  0.5241107712801656  0.38598193023141253  1.0000
  C   C12       1.0  0.4036514876677636  0.4758892282985554  0.6140180693124992  1.0000
  C   C13       1.0  0.4175418238275032  0.6379077106572838  0.37727915645033067  1.0000
  C   C14       1.0  0.5824581767184057  0.36209228918920244  0.6227208437862976  1.0000
  C   C15       1.0  0.5045253521807783  0.8005864345279146  0.443520481891605  1.0000
  C   C16       1.0  0.495474646278056  0.19941356504314772  0.556479517652383  1.0000
  C   C17       1.0  0.06399954629423064  0.2584598922092673  0.11805611062121771  1.0000
  C   C18       1.0  0.9360004521646036  0.7415401073617949  0.8819438889227702  1.0000
  C   C19       1.0  0.8506814859811841  0.256204046217236  0.045492533245064824  1.0000
  C   C20       1.0  0.1493185145647247  0.74379595362925  0.9545074669915632  1.0000
  C   C21       1.0  0.7439061727263363  0.40929164702301457  0.06526801715294112  1.0000
  C   C22       1.0  0.25609382763445576  0.5907083525557064  0.9347319823909708  1.0000
  C   C23       1.0  0.5491930878025596  0.4215398841266945  0.9888208429373422  1.0000
  C   C24       1.0  0.4508069125582326  0.5784601154520266  0.011179156606569596  1.0000
  N   N1        1.0  0.542402327170095  0.13270910433160907  0.2318604119587526  1.0000
  N   N2        1.0  0.45759767337581386  0.867290895514877  0.7681395882778755  1.0000
  N   N3        1.0  0.5334223556404455  0.38328118016750673  0.3183212030156137  1.0000
  N   N4        1.0  0.46657764490546333  0.6167188196789796  0.6816787972210144  1.0000
  O   O1        1.0  0.7784947616953828  0.5537950925830935  0.44702930533482577  1.0000
  O   O2        1.0  0.22150523885052606  0.4462049072633927  0.5529706949018023  1.0000
  O   O3        1.0  0.16639633094632694  0.12842655062199795  0.10402395847301706  1.0000
  O   O4        1.0  0.8336036694144653  0.8715734489567231  0.8959760410708948  1.0000
  O   O5        1.0  0.13741571578271022  0.37423757337403185  0.1849962969247109  1.0000
  O   O6        1.0  0.8625842828612407  0.6257624264647956  0.8150037033119933  1.0000
  Br  Br1       1.0  0.9675949395714212  0.7830909530344532  0.23814261771991266  1.0000
  Br  Br2       1.0  0.032405060789371026  0.21690904654426774  0.7618573818239993  1.0000
