data_image0
_chemical_formula_structural       H44C40N8O12Br4
_chemical_formula_sum              "H44 C40 N8 O12 Br4"
_cell_length_a       4.802162395284614
_cell_length_b       9.686367221526714
_cell_length_c       23.70871025037745
_cell_angle_alpha    90.0
_cell_angle_beta     90.77155552637102
_cell_angle_gamma    90.0

_space_group_name_H-M_alt    "P 1"
_space_group_IT_number       1

loop_
  _space_group_symop_operation_xyz
  'x, y, z'

loop_
  _atom_site_type_symbol
  _atom_site_label
  _atom_site_symmetry_multiplicity
  _atom_site_fract_x
  _atom_site_fract_y
  _atom_site_fract_z
  _atom_site_occupancy
  H   H1        1.0  0.3204730399856147  0.040689890336191296  0.45851344400327043  1.0000
  H   H2        1.0  0.1795269603276267  0.5406898902573839  0.041486555795567745  1.0000
  H   H3        1.0  0.6795269585585219  0.9593101095061939  0.5414865555950996  1.0000
  H   H4        1.0  0.8204730403303243  0.45931010958500135  0.9585134442239323  1.0000
  H   H5        1.0  0.8899864090914554  0.04466460026814985  0.3183368583306493  1.0000
  H   H6        1.0  0.6100135908499629  0.5446646001893425  0.1816631416813761  1.0000
  H   H7        1.0  0.11001359156649533  0.9553353995742354  0.6816631416888507  1.0000
  H   H8        1.0  0.38998640980798804  0.45533539965304276  0.8183368583381238  1.0000
  H   H9        1.0  0.7017701168954652  0.2769464628636268  0.2926087195915686  1.0000
  H   H10       1.0  0.7982298830459532  0.7769464627848194  0.20739128042045676  1.0000
  H   H11       1.0  0.29822988376248566  0.7230535369787584  0.7073912804279313  1.0000
  H   H12       1.0  0.20177011761199773  0.2230535370575658  0.7926087195990431  1.0000
  H   H13       1.0  0.14399160114063647  0.43851653802265306  0.3790964872240481  1.0000
  H   H14       1.0  0.35600839709025867  0.9385165379438457  0.12090351257548378  1.0000
  H   H15       1.0  0.8560083974349681  0.5614834618197322  0.6209035127961455  1.0000
  H   H16       1.0  0.643991601485346  0.06148346189853954  0.8790964874447098  1.0000
  H   H17       1.0  0.22762390175597355  0.6719438228126698  0.36623798724238976  1.0000
  H   H18       1.0  0.27237609858873596  0.17194382289147725  0.13376201297827198  1.0000
  H   H19       1.0  0.7723760989019773  0.3280561770297154  0.6337620127771102  1.0000
  H   H20       1.0  0.7276238999868687  0.8280561779832868  0.8662379870419216  1.0000
  H   H21       1.0  0.020477391485944834  0.6215298173520104  0.30836949286520177  1.0000
  H   H22       1.0  0.47952260885876463  0.12152981743081784  0.19163050735545994  1.0000
  H   H23       1.0  0.9795226091720061  0.37847018249037473  0.6916305071542981  1.0000
  H   H24       1.0  0.5204773917991862  0.8784701824115674  0.80836949266404  1.0000
  H   H25       1.0  0.23900421248768522  0.8575114168230786  0.29346889703012613  1.0000
  H   H26       1.0  0.26099578785702426  0.3575114169018859  0.2065311031905356  1.0000
  H   H27       1.0  0.7609957881702657  0.14248858301930664  0.7065311029893738  1.0000
  H   H28       1.0  0.7390042128009265  0.6424885829404993  0.7934688968289644  1.0000
  H   H29       1.0  0.35169991275839574  0.7384682633240669  0.24190763150723116  1.0000
  H   H30       1.0  0.14830008758631374  0.2384682634028743  0.25809236871343055  1.0000
  H   H31       1.0  0.6483000878995551  0.26153173651831835  0.7580923685122689  1.0000
  H   H32       1.0  0.8516999130716373  0.7615317364395109  0.7419076313060694  1.0000
  H   H33       1.0  0.5759376910459472  0.7823229758581893  0.29909436051739435  1.0000
  H   H34       1.0  0.9240623088640032  0.2823229749046179  0.2009056390728074  1.0000
  H   H35       1.0  0.42406230749818946  0.2176770250165747  0.7009056390809758  1.0000
  H   H36       1.0  0.07593769176247965  0.7176770249377673  0.7990943605248689  1.0000
  H   H37       1.0  0.07312824960207466  0.263168470872635  0.4437367364328188  1.0000
  H   H38       1.0  0.4268717507426349  0.7631684707938277  0.05626326378784288  1.0000
  H   H39       1.0  0.9268717510558762  0.7368315289697501  0.556263263586681  1.0000
  H   H40       1.0  0.5731282499153162  0.23683152904855756  0.943736736231657  1.0000
  H   H41       1.0  0.5218292376945515  0.3651495745628484  0.5345028496410715  1.0000
  H   H42       1.0  0.9781707611942945  0.8651495744840411  0.9654971501779602  1.0000
  H   H43       1.0  0.4781707629633995  0.6348504263119156  0.4654971503784284  1.0000
  H   H44       1.0  0.021829237349841938  0.13485042639072298  0.0345028494204098  1.0000
  C   C1        1.0  0.4126827512556668  0.08914044556158257  0.4216122944243288  1.0000
  C   C2        1.0  0.08731724700669635  0.5891404454827752  0.07838770579702664  1.0000
  C   C3        1.0  0.5873172473199378  0.9108595542808027  0.5783877055958648  1.0000
  C   C4        1.0  0.9126827515689082  0.41085955435961  0.921612294223167  1.0000
  C   C5        1.0  0.6263384982830347  0.027024978922773134  0.3918918589032575  1.0000
  C   C6        1.0  0.8736615016583839  0.5270249788439658  0.10810814110876786  1.0000
  C   C7        1.0  0.3736615023749163  0.9729750209196121  0.6081081411162423  1.0000
  C   C8        1.0  0.12633849691722082  0.4729750209984195  0.8918918589114259  1.0000
  C   C9        1.0  0.7307029923966002  0.09262629626575174  0.34407884822646295  1.0000
  C   C10       1.0  0.7692970075448181  0.5926262961869444  0.1559211517855624  1.0000
  C   C11       1.0  0.2692970061790044  0.9073737035766335  0.6559211517937307  1.0000
  C   C12       1.0  0.23070299311313275  0.4073737036554409  0.8440788482339374  1.0000
  C   C13       1.0  0.6254181022874957  0.22083928381798862  0.3288302197945534  1.0000
  C   C14       1.0  0.8745818976539227  0.7208392837391812  0.17116978021747192  1.0000
  C   C15       1.0  0.37458189837045525  0.7791607170567754  0.6711697802249466  1.0000
  C   C16       1.0  0.12541810300402814  0.279160716103204  0.828830219802028  1.0000
  C   C17       1.0  0.4165194436687849  0.2806106745529298  0.36194833904429985  1.0000
  C   C18       1.0  0.08348055667592454  0.7806106744741224  0.13805166117636186  1.0000
  C   C19       1.0  0.5834805569891659  0.7193893252894554  0.6380516609752  1.0000
  C   C20       1.0  0.9165194439820263  0.21938932536826278  0.8619483388431382  1.0000
  C   C21       1.0  0.3994934150078221  0.5112491078176848  0.31638578059613415  1.0000
  C   C22       1.0  0.10050658530541934  0.011249106864113482  0.183614219202704  1.0000
  C   C23       1.0  0.6005065856501288  0.48875089305707914  0.6836142194233658  1.0000
  C   C24       1.0  0.8994934153525315  0.9887508929782717  0.8163857808167959  1.0000
  C   C25       1.0  0.2373518742802087  0.6446097909775369  0.32124737504141554  1.0000
  C   C26       1.0  0.2626481260330327  0.14460979105634425  0.1787526247574226  1.0000
  C   C27       1.0  0.7626481263777423  0.35539020886484834  0.6787526249780843  1.0000
  C   C28       1.0  0.7373518746249181  0.855390208786041  0.8212473752620773  1.0000
  C   C29       1.0  0.3582483508110237  0.7622186575367426  0.2870729894351744  1.0000
  C   C30       1.0  0.14175164953368585  0.26221865761555  0.21292701078548737  1.0000
  C   C31       1.0  0.6417516498469272  0.2377813423056426  0.7129270105843255  1.0000
  C   C32       1.0  0.8582483511242651  0.7377813422268352  0.7870729892340125  1.0000
  C   C33       1.0  0.8008753583404074  0.40771243023114906  0.463468481360708  1.0000
  C   C34       1.0  0.6991246416010111  0.9077124301523417  0.036531518651317374  1.0000
  C   C35       1.0  0.19912464231754348  0.5922875706436149  0.5365315186587919  1.0000
  C   C36       1.0  0.3008753569745936  0.09228757072242232  0.9634684813688762  1.0000
  C   C37       1.0  0.5716902191558647  0.44094485603518163  0.5022372846202073  1.0000
  C   C38       1.0  0.9283097797329813  0.9409448559563742  0.9977627151988244  1.0000
  C   C39       1.0  0.42830977941973986  0.5590551438072036  0.4977627153999863  1.0000
  C   C40       1.0  0.07169021881115527  0.05905514388601092  0.002237284399545571  1.0000
  N   N1        1.0  0.3104812825925038  0.21286755424857948  0.4066810792482387  1.0000
  N   N2        1.0  0.1895187177207376  0.7128675541697721  0.09331892055059947  1.0000
  N   N3        1.0  0.6895187180654471  0.7871324455938057  0.5933189207712611  1.0000
  N   N4        1.0  0.810481280854867  0.28713244567261315  0.906681079469594  1.0000
  N   N5        1.0  0.30373721947804305  0.40990350863181446  0.352287490820602  1.0000
  N   N6        1.0  0.19626278083519838  0.9099035085530071  0.14771250897823618  1.0000
  N   N7        1.0  0.6962627811799078  0.5900964912105708  0.6477125091988979  1.0000
  N   N8        1.0  0.8037372198227525  0.09009649128937817  0.8522874910412639  1.0000
  O   O1        1.0  0.5951809899915737  0.4947689892810639  0.2836520302180778  1.0000
  O   O2        1.0  0.9048190099498448  0.9947689902346353  0.21634796979394758  1.0000
  O   O3        1.0  0.40481901066637727  0.5052310105613214  0.7163479698014221  1.0000
  O   O4        1.0  0.09518099070810615  0.005231010640128687  0.7836520302255522  1.0000
  O   O5        1.0  0.9084819425680747  0.2839952375423591  0.4724019983337362  1.0000
  O   O6        1.0  0.5915180573733437  0.7839952374635517  0.027598001678289116  1.0000
  O   O7        1.0  0.09151805808987623  0.7160047623000262  0.5275980016857637  1.0000
  O   O8        1.0  0.40848194328460724  0.2160047623788335  0.9724019983412108  1.0000
  O   O9        1.0  0.8810760984681191  0.48928694748091517  0.4265115267866057  1.0000
  O   O10       1.0  0.6189239014732995  0.9892869474021078  0.07348847322541961  1.0000
  O   O11       1.0  0.11892390218983186  0.51071305236147  0.5734884732328941  1.0000
  O   O12       1.0  0.3810760971023053  0.010713052440277421  0.926511526794774  1.0000
  Br  Br1       1.0  0.7787204933303528  0.857644979795699  0.41795292548558394  1.0000
  Br  Br2       1.0  0.7212795066110655  0.35764497987450633  0.08204707452644146  1.0000
  Br  Br3       1.0  0.2212795052452518  0.14235502004668624  0.5820470745346097  1.0000
  Br  Br4       1.0  0.2787204940468853  0.6423550199678788  0.9179529254930584  1.0000
