data_image0
_chemical_formula_structural       H20C18N4O6Br2
_chemical_formula_sum              "H20 C18 N4 O6 Br2"
_cell_length_a       4.943963362740933
_cell_length_b       10.017060793554922
_cell_length_c       11.402021872178745
_cell_angle_alpha    113.95035037984051
_cell_angle_beta     92.76162849286374
_cell_angle_gamma    92.85166750383769

_space_group_name_H-M_alt    "P 1"
_space_group_IT_number       1

loop_
  _space_group_symop_operation_xyz
  'x, y, z'

loop_
  _atom_site_type_symbol
  _atom_site_label
  _atom_site_symmetry_multiplicity
  _atom_site_fract_x
  _atom_site_fract_y
  _atom_site_fract_z
  _atom_site_occupancy
  H   H1        1.0  0.17692192196516743  0.20619100342978328  0.26894670240573987  1.0000
  H   H2        1.0  0.8230780767821249  0.79380899720128  0.7310532984431609  1.0000
  H   H3        1.0  0.8132916657897953  0.43013574165585605  0.44238609677988033  1.0000
  H   H4        1.0  0.18670833270548945  0.5698642575296795  0.5576139031024463  1.0000
  H   H5        1.0  0.9906945392977808  0.638539005118571  0.3904695922027793  1.0000
  H   H6        1.0  0.009305459307123544  0.3614609950684487  0.6095304076837694  1.0000
  H   H7        1.0  0.30657052544510616  0.5293921929415185  0.10803381975281469  1.0000
  H   H8        1.0  0.6934294751827157  0.47060780724348383  0.8919661801381447  1.0000
  H   H9        1.0  0.2714855548187584  0.07638764853980633  0.5029649255184173  1.0000
  H   H10       1.0  0.7285144458090634  0.923612351645196  0.4970350743725422  1.0000
  H   H11       1.0  0.35997756981015006  0.9663545181284516  0.3463150392726138  1.0000
  H   H12       1.0  0.6400224308176719  0.033645482056550456  0.6536849606183456  1.0000
  H   H13       1.0  0.06605727770491096  0.06803322057001074  0.3665433802466346  1.0000
  H   H14       1.0  0.9339427208999936  0.931966779617009  0.6334566196399143  1.0000
  H   H15       1.0  0.06759540023841064  0.31425309344422303  0.1294212821667835  1.0000
  H   H16       1.0  0.9324046002797917  0.6857469057392952  0.8705787177199537  1.0000
  H   H17       1.0  0.40041966190983164  0.1474395443433304  0.009288317372573704  1.0000
  H   H18       1.0  0.5995803387179902  0.852560455841672  0.9907116825183857  1.0000
  H   H19       1.0  0.6058137618242435  0.04024580111141198  0.8923610267632606  1.0000
  H   H20       1.0  0.3941862388035784  0.9597541990735903  0.10763897312769893  1.0000
  C   C1        1.0  0.47012572644854117  0.3736061619812792  0.3041025871811966  1.0000
  C   C2        1.0  0.5298742743216683  0.6263938386477668  0.6958974136721148  1.0000
  C   C3        1.0  0.7094284068697031  0.4575191349136635  0.3701442545926486  1.0000
  C   C4        1.0  0.2905715936484991  0.5424808642698546  0.6298557452940885  1.0000
  C   C5        1.0  0.8061595119093219  0.57131171379888  0.3399523746708503  1.0000
  C   C6        1.0  0.19384048871850004  0.42868828638612216  0.6600476252201091  1.0000
  C   C7        1.0  0.6619136537093889  0.5980928893174748  0.24436632187969692  1.0000
  C   C8        1.0  0.33808634489551553  0.4019071108695449  0.755633678006852  1.0000
  C   C9        1.0  0.4259696247931477  0.511638767017772  0.1827941340188853  1.0000
  C   C10       1.0  0.5740303758346742  0.4883612331672303  0.817205865872074  1.0000
  C   C11       1.0  0.4548846716442705  0.19578252009797462  0.40549472363306105  1.0000
  C   C12       1.0  0.545115326960634  0.804217480089045  0.5945052762534879  1.0000
  C   C13       1.0  0.27414593985147445  0.06983681000036145  0.40478877336765834  1.0000
  C   C14       1.0  0.7258540607763473  0.9301631901846408  0.595211226523301  1.0000
  C   C15       1.0  0.8025583399951062  0.14420084460079144  0.07928871763984235  1.0000
  C   C16       1.0  0.1974416586097984  0.8557991555862282  0.9207112822467065  1.0000
  C   C17       1.0  0.5542029870423931  0.06745517288687852  0.9916606187411584  1.0000
  C   C18       1.0  0.4457970134758093  0.9325448262966397  0.008339381145578811  1.0000
  N   N1        1.0  0.3329455086358792  0.40212164696781066  0.21247737733214056  1.0000
  N   N2        1.0  0.6670544899690253  0.597878353219209  0.7875226225544085  1.0000
  N   N3        1.0  0.35365898867059103  0.2578308590609775  0.32592668483721937  1.0000
  N   N4        1.0  0.6463410100767011  0.7421691415700857  0.6740733160116814  1.0000
  O   O1        1.0  0.674267604069446  0.23794257268791869  0.47097164527661733  1.0000
  O   O2        1.0  0.3257323965583758  0.7620574274970837  0.5290283546143423  1.0000
  O   O3        1.0  0.8944325097878414  0.26328480507573815  0.06615293223077809  1.0000
  O   O4        1.0  0.10556749083998035  0.7367151951092642  0.9338470676601814  1.0000
  O   O5        1.0  0.9085048204832629  0.10008086790557733  0.15668228684521873  1.0000
  O   O6        1.0  0.09149518014455886  0.899919132279425  0.8433177130457407  1.0000
  Br  Br1       1.0  0.7864779577459914  0.7492715467286852  0.19627739519862475  1.0000
  Br  Br2       1.0  0.21352204288183044  0.25072845345631717  0.8037226046923348  1.0000
