data_image0
_chemical_formula_structural       H64C82O2F20P4I6
_chemical_formula_sum              "H64 C82 O2 F20 P4 I6"
_cell_length_a       9.412436645506249
_cell_length_b       12.983932953359622
_cell_length_c       18.65617234684963
_cell_angle_alpha    104.34415379586888
_cell_angle_beta     95.27424955407983
_cell_angle_gamma    105.53023033116072

_space_group_name_H-M_alt    "P 1"
_space_group_IT_number       1

loop_
  _space_group_symop_operation_xyz
  'x, y, z'

loop_
  _atom_site_type_symbol
  _atom_site_label
  _atom_site_symmetry_multiplicity
  _atom_site_fract_x
  _atom_site_fract_y
  _atom_site_fract_z
  _atom_site_occupancy
  H   H1        1.0  0.8954856431971532  0.6757869712115477  0.6329037507399401  1.0000
  H   H2        1.0  0.10451435621447244  0.3242130281918854  0.3670962488035121  1.0000
  H   H3        1.0  0.04586593651001184  0.6161128000486418  0.5393779596562306  1.0000
  H   H4        1.0  0.9541340633885771  0.38388720039183344  0.4606220404475983  1.0000
  H   H5        1.0  0.22795761769477957  0.5167729134950698  0.567439617900371  1.0000
  H   H6        1.0  0.7720423832654683  0.4832270869427196  0.4325603822047646  1.0000
  H   H7        1.0  0.2523753513325368  0.4741934657274179  0.6907515174522623  1.0000
  H   H8        1.0  0.7476246482668506  0.5258065339141234  0.30924848265257804  1.0000
  H   H9        1.0  0.09641029089617319  0.5252791157557521  0.7827950253204581  1.0000
  H   H10       1.0  0.9035897087032142  0.4747208838857889  0.2172049747843821  1.0000
  H   H11       1.0  0.6872409105299889  0.5434606362590749  0.8831493624473008  1.0000
  H   H12       1.0  0.3127590890693986  0.45653936338246637  0.11685063765753954  1.0000
  H   H13       1.0  0.7662758873784373  0.549827461783413  0.014078424368949526  1.0000
  H   H14       1.0  0.2337241125201517  0.45017253865706214  0.9859215757348793  1.0000
  H   H15       1.0  0.03238899866482925  0.6338563248788432  0.07432936663178816  1.0000
  H   H16       1.0  0.9676110012337599  0.36614367556163185  0.9256706334720406  1.0000
  H   H17       1.0  0.22420642400585838  0.7101252513978272  0.001829137451050257  1.0000
  H   H18       1.0  0.7757935754057671  0.2898747480056058  0.9981708620924019  1.0000
  H   H19       1.0  0.14829221593593672  0.7095125313916265  0.8716788001822269  1.0000
  H   H20       1.0  0.8517077839626521  0.29048746904884853  0.12832119992160196  1.0000
  H   H21       1.0  0.9606674725348896  0.8329359745823476  0.8116233867687442  1.0000
  H   H22       1.0  0.03933252736369936  0.16706402585812752  0.18837661333508454  1.0000
  H   H23       1.0  0.8229990163916213  0.7861146913101884  0.7290761498543199  1.0000
  H   H24       1.0  0.1770009835069677  0.21388530913028675  0.270923850249509  1.0000
  H   H25       1.0  0.5950220950857998  0.5538266762255387  0.7735479276420973  1.0000
  H   H26       1.0  0.40497790451358767  0.44617332341600247  0.22645207246274296  1.0000
  H   H27       1.0  0.639607407581173  0.5650592284745714  0.6842624058862546  1.0000
  H   H28       1.0  0.36039259183045264  0.43494077092886174  0.31573759365719756  1.0000
  H   H29       1.0  0.7145597455831104  0.3978659219222801  0.7625028357279213  1.0000
  H   H30       1.0  0.2854402548901741  0.6021340774784675  0.2374971638168377  1.0000
  H   H31       1.0  0.749152932409888  0.40697079038770245  0.6723204083428963  1.0000
  H   H32       1.0  0.25084706718949945  0.5930292092538387  0.32767959176194394  1.0000
  H   H33       1.0  0.4689120978388174  0.3640939379742567  0.6293771970090146  1.0000
  H   H34       1.0  0.531087902822229  0.635906061664599  0.37062280309713264  1.0000
  H   H35       1.0  0.4391129911232402  0.35383960057672514  0.7210684751312293  1.0000
  H   H36       1.0  0.5608870084761474  0.6461603990648161  0.278931524973611  1.0000
  H   H37       1.0  0.8239563021155304  0.22336954603570516  0.6469948137642834  1.0000
  H   H38       1.0  0.17604369854551583  0.7766304536031504  0.3530051863418638  1.0000
  H   H39       1.0  0.9703831297951608  0.21577290961223816  0.5424083657934351  1.0000
  H   H40       1.0  0.02961687010342823  0.7842270908282369  0.4575916343103938  1.0000
  H   H41       1.0  0.8446266961002658  0.17449504478594524  0.41261197378954007  1.0000
  H   H42       1.0  0.15537330361056143  0.8255049554164219  0.5873880257529006  1.0000
  H   H43       1.0  0.567444684076483  0.13972722500648005  0.38425968837210944  1.0000
  H   H44       1.0  0.4325553155229043  0.860272774635061  0.6157403117327307  1.0000
  H   H45       1.0  0.41861771316587604  0.140084084062943  0.4854197054882919  1.0000
  H   H46       1.0  0.5813822862457496  0.8599159153404902  0.5145802940551604  1.0000
  H   H47       1.0  0.6647370806126103  0.03459734847432957  0.6531016556938802  1.0000
  H   H48       1.0  0.3352629192859788  0.9654026519661455  0.34689834440994854  1.0000
  H   H49       1.0  0.7436867397686987  0.967204641896327  0.7560519199134449  1.0000
  H   H50       1.0  0.25631326012989025  0.032795358544147994  0.2439480801903839  1.0000
  H   H51       1.0  0.7022974436581657  0.04751055706480196  0.886375068421968  1.0000
  H   H52       1.0  0.2977025562404232  0.9524894433756731  0.11362493168186084  1.0000
  H   H53       1.0  0.5798384460171966  0.19994297257796328  0.9107355779246921  1.0000
  H   H54       1.0  0.4201615547552892  0.800057027621718  0.08926442161905544  1.0000
  H   H55       1.0  0.506250275698597  0.27167398701043804  0.8088955110773026  1.0000
  H   H56       1.0  0.4937497239007906  0.7283260126311032  0.1911044890275377  1.0000
  H   H57       1.0  0.2597671650719036  0.148280518643711  0.5720718621598846  1.0000
  H   H58       1.0  0.7402328346389234  0.851719481558656  0.4279281373825561  1.0000
  H   H59       1.0  0.3083195593306841  0.030815641831136727  0.5861364275716877  1.0000
  H   H60       1.0  0.6916804413303621  0.9691843578077187  0.4138635725344594  1.0000
  H   H61       1.0  0.47624246210012916  0.6182074531473585  0.9728383944634554  1.0000
  H   H62       1.0  0.5237575377984598  0.3817925472931165  0.027161605640373208  1.0000
  H   H63       1.0  0.5541734698603893  0.643232409718594  0.054885532878159796  1.0000
  H   H64       1.0  0.4458265300381998  0.3567675907218811  0.945114467225669  1.0000
  C   C1        1.0  0.9854037769576107  0.6050159099185786  0.7146897081108103  1.0000
  C   C2        1.0  0.014596222641776716  0.39498408972296256  0.2853102919940299  1.0000
  C   C3        1.0  0.9722211983636553  0.6306423341653995  0.6459618661246663  1.0000
  C   C4        1.0  0.02777880259659258  0.36935766627239  0.35403813398046935  1.0000
  C   C5        1.0  0.058225769004344535  0.59760470607225  0.5930169941510388  1.0000
  C   C6        1.0  0.9417742316567017  0.4023952935666056  0.4069830059551083  1.0000
  C   C7        1.0  0.15968983783702667  0.5416731430261343  0.6087483587225204  1.0000
  C   C8        1.0  0.8403101617623607  0.4583268566154069  0.3912516413823198  1.0000
  C   C9        1.0  0.1732542527555137  0.5171078802923218  0.677291939773825  1.0000
  C   C10       1.0  0.826745748204734  0.48289212014546756  0.3227080603313107  1.0000
  C   C11       1.0  0.0851093256138743  0.5468951099319203  0.730153656753177  1.0000
  C   C12       1.0  0.9148906753463735  0.45310489050586933  0.26984634335195873  1.0000
  C   C13       1.0  0.9133309170589985  0.6254750227739935  0.8679469029412532  1.0000
  C   C14       1.0  0.08666908341428592  0.37452497662675405  0.1320530966035059  1.0000
  C   C15       1.0  0.8055104295948965  0.5803350492845254  0.9081525492429823  1.0000
  C   C16       1.0  0.19448957106614972  0.41966495035433027  0.09184745086316491  1.0000
  C   C17       1.0  0.8495085025188044  0.5840858359701607  0.9824024637985271  1.0000
  C   C18       1.0  0.150491498142242  0.415914163668695  0.017597536307620048  1.0000
  C   C19       1.0  0.9993307014153662  0.6316231992609318  0.016310422550589555  1.0000
  C   C20       1.0  0.0006692993571195577  0.3683768009387496  0.9836895769931582  1.0000
  C   C21       1.0  0.10674337387810237  0.6754297169138117  0.9761216563922125  1.0000
  C   C22       1.0  0.8932566260204867  0.3245702835266635  0.023878343711616384  1.0000
  C   C23       1.0  0.06435039781309963  0.6735985243444922  0.9022461891235694  1.0000
  C   C24       1.0  0.9356496020854894  0.32640147609598286  0.0977538109802594  1.0000
  C   C25       1.0  0.8481710301726217  0.7770228794521268  0.785737361486568  1.0000
  C   C26       1.0  0.15182896972596718  0.22297712098834824  0.21426263861726072  1.0000
  C   C27       1.0  0.7346202142195078  0.8024909807464313  0.8332350351083194  1.0000
  C   C28       1.0  0.26537978644153837  0.19750901889242412  0.16676496499782775  1.0000
  C   C29       1.0  0.7733329438883809  0.8495925245984809  0.9111601896528325  1.0000
  C   C30       1.0  0.22666705677266522  0.1504074750403747  0.08883981045331467  1.0000
  C   C31       1.0  0.6688937085839667  0.8734031103704878  0.955912618930674  1.0000
  C   C32       1.0  0.3311062913146224  0.12659689006998745  0.044087381173154847  1.0000
  C   C33       1.0  0.5208225274790271  0.8502995604015392  0.9224247678842539  1.0000
  C   C34       1.0  0.47917747241956177  0.14970044003893587  0.07757523221957502  1.0000
  C   C35       1.0  0.47875571949245654  0.8039534628684064  0.844996304838339  1.0000
  C   C36       1.0  0.5212442809808279  0.196046536532341  0.15500369470642003  1.0000
  C   C37       1.0  0.5850723732211478  0.7803103554320623  0.8017911184558797  1.0000
  C   C38       1.0  0.4149276263782397  0.21968964420947892  0.19820888164896058  1.0000
  C   C39       1.0  0.6739230129653216  0.5410120688083301  0.734313519838468  1.0000
  C   C40       1.0  0.3260769876957245  0.45898793083052547  0.26568648026767905  1.0000
  C   C41       1.0  0.6730755416500451  0.4192741427089205  0.7127698181868025  1.0000
  C   C42       1.0  0.3269244582485439  0.5807258577315546  0.2872301819170262  1.0000
  C   C43       1.0  0.513699097405632  0.3435691879665571  0.6790590836491854  1.0000
  C   C44       1.0  0.48630090230519507  0.6564308122358099  0.32094091589325535  1.0000
  C   C45       1.0  0.6112955468295608  0.1808336810999819  0.5731054102367251  1.0000
  C   C46       1.0  0.3887044530690282  0.8191663193404932  0.42689458986710366  1.0000
  C   C47       1.0  0.7675042786425808  0.20368948705631396  0.5894594808313038  1.0000
  C   C48       1.0  0.23249572125600823  0.7963105133841611  0.4105405192725249  1.0000
  C   C49       1.0  0.8498324576879522  0.20031245740615342  0.5310695748179195  1.0000
  C   C50       1.0  0.15016754172367347  0.7996875419972798  0.46893042472553265  1.0000
  C   C51       1.0  0.7780690225776277  0.17691471213212964  0.45738477539321476  1.0000
  C   C52       1.0  0.22193097732096126  0.8230852883083455  0.5426152247106141  1.0000
  C   C53       1.0  0.6235359371806172  0.15603085216687193  0.4414450589758865  1.0000
  C   C54       1.0  0.37646406348042916  0.8439691474719836  0.5585549411302606  1.0000
  C   C55       1.0  0.5393654937381629  0.15657209927548593  0.49906651718932526  1.0000
  C   C56       1.0  0.4606345069228834  0.8434279003633697  0.5009334829168218  1.0000
  C   C57       1.0  0.57927428356791  0.1576371782925979  0.7235763524244543  1.0000
  C   C58       1.0  0.42072571603147746  0.8423628213489434  0.276423647680386  1.0000
  C   C59       1.0  0.6458862848396802  0.07155101449209014  0.709230722485832  1.0000
  C   C60       1.0  0.3541137150589087  0.928448985948385  0.29076927761799687  1.0000
  C   C61       1.0  0.6902303370645334  0.032868131455347734  0.7680658806488482  1.0000
  C   C62       1.0  0.3097696628340556  0.9671318689851273  0.2319341194549806  1.0000
  C   C63       1.0  0.66686341215046  0.07808090571767931  0.8405489667926097  1.0000
  C   C64       1.0  0.33313658774812904  0.9219190947227959  0.1594510333112191  1.0000
  C   C65       1.0  0.6003466247564083  0.16346477528279188  0.8548581401080215  1.0000
  C   C66       1.0  0.3996533751421806  0.8365352251576831  0.14514185999580734  1.0000
  C   C67       1.0  0.5573406141150457  0.2042666796600765  0.7966126003823464  1.0000
  C   C68       1.0  0.44265938548434186  0.7957333199814648  0.20338739972249395  1.0000
  C   C69       1.0  0.3086134416223281  0.11581990101300758  0.6143838680437947  1.0000
  C   C70       1.0  0.6913865582762608  0.8841800994274676  0.385616132060034  1.0000
  C   C71       1.0  0.22384901344284489  0.11706854870320466  0.6788017707718066  1.0000
  C   C72       1.0  0.7761509859687807  0.8829314507002284  0.3211982287716456  1.0000
  C   C73       1.0  0.2245333050045207  0.04480207735111242  0.7232319814663521  1.0000
  C   C74       1.0  0.7754666948940683  0.9551979230893627  0.2767680186374766  1.0000
  C   C75       1.0  0.15294994785771493  0.049487895631424667  0.7853224585854375  1.0000
  C   C76       1.0  0.8470500517416726  0.9505121040101167  0.21467754151940277  1.0000
  C   C77       1.0  0.07567258422339805  0.12734166989408982  0.8045808888766985  1.0000
  C   C78       1.0  0.924327415487429  0.8726583303082772  0.1954191106657422  1.0000
  C   C79       1.0  0.06857770347764329  0.19855889732595108  0.7602741138494323  1.0000
  C   C80       1.0  0.9314222964209459  0.801441103114524  0.2397258862543966  1.0000
  C   C81       1.0  0.1435946351177347  0.19298038105924634  0.6991068732736656  1.0000
  C   C82       1.0  0.8564053644816527  0.8070196185822949  0.3008931268311747  1.0000
  O   O1        1.0  0.5162017411611967  0.6790735066919431  0.019809007364115578  1.0000
  O   O2        1.0  0.48379825825042905  0.3209264927114901  0.9801909921793367  1.0000
  F   F1        1.0  0.9165324438081902  0.8744134920217851  0.9448299098412846  1.0000
  F   F2        1.0  0.08346755590263691  0.12558650818058173  0.05517008970115609  1.0000
  F   F3        1.0  0.7104440568934067  0.9197504140374545  0.03018857446737617  1.0000
  F   F4        1.0  0.28955594300518234  0.08024958640302074  0.9698114256364526  1.0000
  F   F5        1.0  0.4185409575534556  0.873595880768661  0.9644657896115779  1.0000
  F   F6        1.0  0.5814590421573714  0.126404119433706  0.03553420993086269  1.0000
  F   F7        1.0  0.33663141750008163  0.7838982818999414  0.8120671301795162  1.0000
  F   F8        1.0  0.663368581911544  0.21610171750349175  0.1879328693639361  1.0000
  F   F9        1.0  0.5410364056871613  0.736640549832772  0.7265764520188122  1.0000
  F   F10       1.0  0.45896359421142763  0.26335945060770294  0.27342354808501657  1.0000
  F   F11       1.0  0.2967042303039066  0.9669859995444334  0.706824578233709  1.0000
  F   F12       1.0  0.7032957691077191  0.033013999858999665  0.29317542130974317  1.0000
  F   F13       1.0  0.1585099142185934  0.9784872937294851  0.8266604870392413  1.0000
  F   F14       1.0  0.8414900854922337  0.02151270647288199  0.17333951250319934  1.0000
  F   F15       1.0  0.009387063190376117  0.13343855000255858  0.8655742612433026  1.0000
  F   F16       1.0  0.9906129367082129  0.8665614504379165  0.13442573886052614  1.0000
  F   F17       1.0  0.9907765557935914  0.2722802137306138  0.77683048579642  1.0000
  F   F18       1.0  0.00922344380579614  0.7277197859109275  0.22316951430842025  1.0000
  F   F19       1.0  0.13887771219915956  0.2654346073459224  0.6582870463678198  1.0000
  F   F20       1.0  0.8611222887610881  0.734565393091867  0.3417129537373158  1.0000
  P   P1        1.0  0.857965068993616  0.6354696796854463  0.7764568662412117  1.0000
  P   P2        1.0  0.14203493060577158  0.364530319956095  0.22354313386362865  1.0000
  P   P3        1.0  0.5055356172213602  0.19892749901050752  0.647487697783521  1.0000
  P   P4        1.0  0.49446438237802737  0.8010725006310337  0.35251230232131925  1.0000
  I   I1        1.0  0.3678203243272432  0.4609353080478178  0.8530335352496438  1.0000
  I   I2        1.0  0.6321796752721444  0.5390646915937235  0.14696646485519646  1.0000
  I   I3        1.0  0.39820821846078597  0.3873318685918053  0.4713669670229017  1.0000
  I   I4        1.0  0.6017917811386014  0.6126681310497359  0.5286330330819385  1.0000
  I   I5        1.0  0.1556624114045913  0.13314890234642934  0.4055882764294702  1.0000
  I   I6        1.0  0.844337589256455  0.8668510972924263  0.5944117236766768  1.0000
