data_image0
_chemical_formula_structural       H144C96N28I4
_chemical_formula_sum              "H144 C96 N28 I4"
_cell_length_a       9.710915313961689
_cell_length_b       14.554140617974394
_cell_length_c       19.163650313696444
_cell_angle_alpha    90.0
_cell_angle_beta     91.30704689579034
_cell_angle_gamma    90.0

_space_group_name_H-M_alt    "P 1"
_space_group_IT_number       1

loop_
  _space_group_symop_operation_xyz
  'x, y, z'

loop_
  _atom_site_type_symbol
  _atom_site_label
  _atom_site_symmetry_multiplicity
  _atom_site_fract_x
  _atom_site_fract_y
  _atom_site_fract_z
  _atom_site_occupancy
  H   H1        1.0  0.1211260496010299  0.3983456558637326  0.7702620276201708  1.0000
  H   H2        1.0  0.6211260494856892  0.1016543435187664  0.2702620276703925  1.0000
  H   H3        1.0  0.8788739505754831  0.601654343588355  0.2297379723816607  1.0000
  H   H4        1.0  0.37887395069082375  0.8983456559333214  0.7297379723314391  1.0000
  H   H5        1.0  0.957235746720163  0.4308381494030603  0.7988876600632191  1.0000
  H   H6        1.0  0.4572357466445149  0.06916185066652837  0.2988876603232814  1.0000
  H   H7        1.0  0.04276425242662152  0.569161850736117  0.2011123399394849  1.0000
  H   H8        1.0  0.5427642525022697  0.930838149472649  0.7011123396794227  1.0000
  H   H9        1.0  0.19375031354876324  0.366965974851446  0.8977631040439811  1.0000
  H   H10       1.0  0.6937503134334224  0.13303402521814267  0.3977631040942028  1.0000
  H   H11       1.0  0.8062496866277497  0.6330340252877313  0.10223689595785035  1.0000
  H   H12       1.0  0.3062496857133621  0.8669659742339451  0.6022368959085012  1.0000
  H   H13       1.0  0.034508568967516834  0.4124881295008086  0.9234955683908674  1.0000
  H   H14       1.0  0.5345085688521761  0.08751187056878008  0.423495568441089  1.0000
  H   H15       1.0  0.9654914312089959  0.5875118706383687  0.0765044316109642  1.0000
  H   H16       1.0  0.46549143029460854  0.9124881288833075  0.576504431561615  1.0000
  H   H17       1.0  0.24650992005873318  0.5149252392645246  0.836255085379025  1.0000
  H   H18       1.0  0.7465099209731207  0.9850747609442415  0.3362550854283741  1.0000
  H   H19       1.0  0.7534900790880514  0.48507476087465284  0.16374491462367904  1.0000
  H   H20       1.0  0.25349007920339217  0.0149252391949359  0.6637449145734574  1.0000
  H   H21       1.0  0.08888843573783867  0.5609619540103281  0.8640482551413423  1.0000
  H   H22       1.0  0.5888884366522262  0.9390380461984379  0.3640482551906914  1.0000
  H   H23       1.0  0.911111563408946  0.4390380461288493  0.13595174486136175  1.0000
  H   H24       1.0  0.4111115635242866  0.06096195394073944  0.6359517448111401  1.0000
  H   H25       1.0  0.281248615546822  0.6114656181766773  0.9428076787383826  1.0000
  H   H26       1.0  0.7812486154314813  0.8885343813449991  0.4428076787886043  1.0000
  H   H27       1.0  0.7187513846296909  0.3885343819625001  0.057192321263448885  1.0000
  H   H28       1.0  0.21875138371530328  0.11146561810708859  0.5571923212140998  1.0000
  H   H29       1.0  0.32384249352690603  0.49514682172989566  0.9621937187419334  1.0000
  H   H30       1.0  0.8238424934115652  0.004853178339693041  0.4621937187921549  1.0000
  H   H31       1.0  0.6761575066496068  0.5048531777221921  0.03780628125989825  1.0000
  H   H32       1.0  0.17615750676494765  0.9951468217994844  0.5378062812096768  1.0000
  H   H33       1.0  0.16497649056583016  0.5417013162744386  0.9894264947785429  1.0000
  H   H34       1.0  0.6649764904504893  0.9582986839343275  0.4894264948287644  1.0000
  H   H35       1.0  0.8350235096106828  0.45829868386473877  0.010573505223288721  1.0000
  H   H36       1.0  0.33502350869629516  0.041701316204849924  0.5105735051739395  1.0000
  H   H37       1.0  0.14870722998474092  0.22845784902569985  0.8731038267739195  1.0000
  H   H38       1.0  0.6487072298694002  0.2715421510438888  0.37310382682414117  1.0000
  H   H39       1.0  0.8512927701917719  0.7715421511134775  0.126896173227912  1.0000
  H   H40       1.0  0.3512927703071127  0.7284578490952885  0.6268961731776904  1.0000
  H   H41       1.0  0.07443550234831955  0.15386235840228296  0.8104415374443454  1.0000
  H   H42       1.0  0.5744355022329788  0.34613764166730576  0.31044153749456704  1.0000
  H   H43       1.0  0.9255644978281934  0.8461376417368944  0.18955846255748615  1.0000
  H   H44       1.0  0.4255644979435341  0.6538623584718717  0.6895584625072646  1.0000
  H   H45       1.0  0.2826540056933046  0.3074950261558531  0.7785615449914624  1.0000
  H   H46       1.0  0.7826540055779639  0.19250497322664592  0.2785615450416839  1.0000
  H   H47       1.0  0.7173459944832082  0.6925049732962346  0.2214384550103692  1.0000
  H   H48       1.0  0.21734599459854903  0.8074950262254418  0.7214384549601476  1.0000
  H   H49       1.0  0.21112214581459737  0.23155061768731425  0.7159610411384632  1.0000
  H   H50       1.0  0.7111221456992567  0.26844938238227445  0.21596104118868484  1.0000
  H   H51       1.0  0.7888778543619156  0.7684493824518632  0.28403895886336833  1.0000
  H   H52       1.0  0.2888778544772563  0.731550617756903  0.7840389588131468  1.0000
  H   H53       1.0  0.38174967379460817  0.17171945534959632  0.8446836869127442  1.0000
  H   H54       1.0  0.8817496736792676  0.32828054471999235  0.3446836869629659  1.0000
  H   H55       1.0  0.6182503263819047  0.828280544789581  0.15531631308908722  1.0000
  H   H56       1.0  0.11825032649724544  0.671719455419185  0.6553163130388656  1.0000
  H   H57       1.0  0.3186990982125185  0.09837459920043486  0.7783425997680288  1.0000
  H   H58       1.0  0.8186990980971778  0.4016254008691538  0.2783425998182504  1.0000
  H   H59       1.0  0.6813009019639944  0.9016254009387424  0.2216574002338028  1.0000
  H   H60       1.0  0.1813009020793351  0.5983745992700236  0.7216574001835813  1.0000
  H   H61       1.0  0.5656718591559546  0.1384073840479603  0.7589188761135767  1.0000
  H   H62       1.0  0.06567185908030639  0.36159261602162845  0.2589188763736391  1.0000
  H   H63       1.0  0.4343281410205582  0.8615926160912172  0.2410811238882548  1.0000
  H   H64       1.0  0.9343281410962065  0.638407384117549  0.7410811236281925  1.0000
  H   H65       1.0  0.5240880768205043  0.25754784898606337  0.7582563902845981  1.0000
  H   H66       1.0  0.02408807674485616  0.24245215108352533  0.2582563905446605  1.0000
  H   H67       1.0  0.4759119233560085  0.742452151153114  0.24174360971723347  1.0000
  H   H68       1.0  0.9759119234316568  0.7575478483685624  0.741743609457171  1.0000
  H   H69       1.0  0.4613040800751434  0.186145787725463  0.6902862495551882  1.0000
  H   H70       1.0  0.9613040799598025  0.3138542123441257  0.19028624960540985  1.0000
  H   H71       1.0  0.5386959201013697  0.8138542124137144  0.3097137504466433  1.0000
  H   H72       1.0  0.03869592021671034  0.6861457877950516  0.8097137503964218  1.0000
  H   H73       1.0  0.8653161667578966  0.195067842514437  0.8541367422543941  1.0000
  H   H74       1.0  0.36531616771197684  0.3049321575551517  0.35413674251358396  1.0000
  H   H75       1.0  0.13468383238888784  0.8049321576247404  0.14586325774831  1.0000
  H   H76       1.0  0.6346838324645361  0.6950678425840258  0.6458632574882477  1.0000
  H   H77       1.0  0.9482975550496552  0.2733666270261537  0.911598145922598  1.0000
  H   H78       1.0  0.44829755497400686  0.226633373043435  0.41159814618266044  1.0000
  H   H79       1.0  0.05170244512685786  0.7266333731130238  0.08840185407923348  1.0000
  H   H80       1.0  0.5517024452025061  0.7733666270957424  0.5884018538191711  1.0000
  H   H81       1.0  0.7185724878620748  0.33005797841937906  0.8067911419516167  1.0000
  H   H82       1.0  0.21857248778642668  0.16994202165020966  0.30679114221167914  1.0000
  H   H83       1.0  0.281427512314438  0.6699420217197983  0.19320885805021484  1.0000
  H   H84       1.0  0.7814275123900862  0.8300579778018781  0.6932088577901525  1.0000
  H   H85       1.0  0.7953615890812252  0.400176567815146  0.8718327972587073  1.0000
  H   H86       1.0  0.2953615890055771  0.09982343225444272  0.37183279751876974  1.0000
  H   H87       1.0  0.20463841109528763  0.5998234316369417  0.1281672027431242  1.0000
  H   H88       1.0  0.7046384111709358  0.9001765678847347  0.6281672024830619  1.0000
  H   H89       1.0  0.6283826517870557  0.2252755299032091  0.8973528808354084  1.0000
  H   H90       1.0  0.1283826517114075  0.27472447016637963  0.3973528810954708  1.0000
  H   H91       1.0  0.3716173483894572  0.7747244702359684  0.10264711916642312  1.0000
  H   H92       1.0  0.8716173484651055  0.725275529285708  0.6026471189063607  1.0000
  H   H93       1.0  0.7105508966151678  0.2909814795089849  0.9636210226124364  1.0000
  H   H94       1.0  0.21055089651430306  0.20901852056060385  0.46362102235054253  1.0000
  H   H95       1.0  0.2894491035613451  0.7090185206301926  0.03637897738939513  1.0000
  H   H96       1.0  0.7894491036622099  0.7909814795785736  0.5363789776512891  1.0000
  H   H97       1.0  0.46113575214235636  0.3364937469376742  0.950830947252549  1.0000
  H   H98       1.0  0.9611357520270157  0.16350625313191453  0.4508309473027706  1.0000
  H   H99       1.0  0.5388642480341566  0.6635062532015032  0.04916905274928257  1.0000
  H   H100      1.0  0.03886424814949731  0.8364937470072629  0.549169052699061  1.0000
  H   H101      1.0  0.4865355482683728  0.3658351104169171  0.8620912252144031  1.0000
  H   H102      1.0  0.986535548153032  0.1341648896526716  0.3620912252646248  1.0000
  H   H103      1.0  0.51346445190814  0.6341648890351705  0.13790877478742838  1.0000
  H   H104      1.0  0.013464452023480832  0.8658351104865059  0.6379087747372069  1.0000
  H   H105      1.0  0.5701120519043714  0.4294309175686567  0.9296229159498709  1.0000
  H   H106      1.0  0.07011205182872329  0.07056908181384228  0.42962291620993326  1.0000
  H   H107      1.0  0.4298879482721414  0.5705690818834309  0.07037708405196068  1.0000
  H   H108      1.0  0.9298879483477897  0.9294309176382454  0.5703770837918983  1.0000
  H   H109      1.0  0.8547577133260155  0.3292049936691377  0.7283799042415067  1.0000
  H   H110      1.0  0.3547577132251509  0.17079500640045098  0.2283799039796127  1.0000
  H   H111      1.0  0.1452422868504973  0.6707950064700398  0.2716200957603249  1.0000
  H   H112      1.0  0.6452422859216337  0.8292049937387265  0.7716200960230912  1.0000
  H   H113      1.0  0.01804027837048529  0.30064531770402736  0.6978904457306575  1.0000
  H   H114      1.0  0.5180402782551445  0.19935468236556136  0.19789044578087908  1.0000
  H   H115      1.0  0.9819597218060274  0.6993546824351501  0.3021095542711741  1.0000
  H   H116      1.0  0.4819597219213684  0.800645317773616  0.8021095542209525  1.0000
  H   H117      1.0  0.8221777708474258  0.15334407084426088  0.7543430110881898  1.0000
  H   H118      1.0  0.3221777707465611  0.34665592922532784  0.25434301082629596  1.0000
  H   H119      1.0  0.17782222932908703  0.8466559292949166  0.24565698891364168  1.0000
  H   H120      1.0  0.6778222294299519  0.6533440709138496  0.7456569891755357  1.0000
  H   H121      1.0  0.9734709525583265  0.1356934422882374  0.7067633728815477  1.0000
  H   H122      1.0  0.47347095245746185  0.36430655709426163  0.2067633726196537  1.0000
  H   H123      1.0  0.026529047618186342  0.8643065571638503  0.2932366271202839  1.0000
  H   H124      1.0  0.526529047719051  0.635693442357826  0.7932366273821778  1.0000
  H   H125      1.0  0.7143117455658593  0.23557296304844816  0.6522260968850874  1.0000
  H   H126      1.0  0.21431174546499454  0.2644270370211405  0.15222609662319336  1.0000
  H   H127      1.0  0.2856882546106536  0.7644270370907292  0.3477739031167443  1.0000
  H   H128      1.0  0.7856882547115184  0.7355729624309472  0.8477739033786381  1.0000
  H   H129      1.0  0.8648150546481834  0.21957083100140917  0.6046440596730502  1.0000
  H   H130      1.0  0.3648150545725353  0.28042916906817955  0.10464405993311261  1.0000
  H   H131      1.0  0.13518494552832935  0.7804291691377682  0.3953559403287813  1.0000
  H   H132      1.0  0.6351849456039775  0.7195708310709978  0.8953559400687189  1.0000
  H   H133      1.0  0.6869802953468924  0.1008939660914429  0.5733129247917322  1.0000
  H   H134      1.0  0.18698029524602774  0.3991060339781458  0.07331292452983823  1.0000
  H   H135      1.0  0.31301970482962044  0.8991060333606449  0.4266870752100994  1.0000
  H   H136      1.0  0.8130197049304851  0.6008939661610316  0.9266870754719934  1.0000
  H   H137      1.0  0.688792757418139  0.06216870262216344  0.6615148344052774  1.0000
  H   H138      1.0  0.18879275734249082  0.4378312974474252  0.16151483466533972  1.0000
  H   H139      1.0  0.31120724172864556  0.937831297517014  0.3384851655974266  1.0000
  H   H140      1.0  0.8112072418042937  0.5621687026917521  0.8384851653373642  1.0000
  H   H141      1.0  0.837615636998344  0.04923963556563054  0.6105243378865428  1.0000
  H   H142      1.0  0.3376156369226958  0.4507603645039582  0.11052433814660524  1.0000
  H   H143      1.0  0.16238436317816893  0.9507603645735468  0.38947566211528867  1.0000
  H   H144      1.0  0.6623843632538171  0.5492396356352193  0.8894756618552263  1.0000
  C   C1        1.0  0.9569289708612142  0.015505187556131186  0.06540834168765657  1.0000
  C   C2        1.0  0.456928970976555  0.4844948125134575  0.565408341637435  1.0000
  C   C3        1.0  0.04307102931529873  0.9844948125830463  0.9345916583141751  1.0000
  C   C4        1.0  0.5430710291999581  0.51550518762572  0.4345916583643966  1.0000
  C   C5        1.0  0.004815724540749599  0.9117949804340244  0.9798446739416169  1.0000
  C   C6        1.0  0.5048157244001923  0.5882050197747418  0.47984467346988224  1.0000
  C   C7        1.0  0.9951842756357633  0.08820501970515307  0.020155326060214647  1.0000
  C   C8        1.0  0.4951842757763206  0.4117949803644356  0.5201553265319494  1.0000
  C   C9        1.0  0.9040685293020948  0.03386938418000568  0.13323955358887063  1.0000
  C   C10       1.0  0.40406852941743554  0.466130615889583  0.633239553538649  1.0000
  C   C11       1.0  0.09593146984468978  0.9661306159591717  0.8667604464138332  1.0000
  C   C12       1.0  0.595931469729349  0.5338693842495944  0.3667604464640549  1.0000
  C   C13       1.0  0.012732119802649128  0.8179113513097805  0.9581588127354758  1.0000
  C   C14       1.0  0.5127321196873084  0.6820886488989855  0.45815881278569737  1.0000
  C   C15       1.0  0.9872678803738636  0.18208864882939685  0.04184118726635576  1.0000
  C   C16       1.0  0.48726788048920455  0.3179113512401918  0.5418411872161342  1.0000
  C   C17       1.0  0.420289701751081  0.07502818535719065  0.9954737813571334  1.0000
  C   C18       1.0  0.9202897016357403  0.4249718147123981  0.49547378140735504  1.0000
  C   C19       1.0  0.5797102984254319  0.9249718147819868  0.004526218644698079  1.0000
  C   C20       1.0  0.07971029854077262  0.5750281854267794  0.5045262185944764  1.0000
  C   C21       1.0  0.45162012735609347  0.9253370345596104  0.9668850583511055  1.0000
  C   C22       1.0  0.9516201272155362  0.5746629656491556  0.4668850578793707  1.0000
  C   C23       1.0  0.5483798728204194  0.074662965579567  0.03311494165072608  1.0000
  C   C24       1.0  0.048379872960976726  0.4253370344900217  0.5331149421224608  1.0000
  C   C25       1.0  0.3414697483614671  0.15747490629364155  0.9887532889182163  1.0000
  C   C26       1.0  0.8414697482209098  0.3425250937759471  0.4887532884464817  1.0000
  C   C27       1.0  0.6585302518150458  0.8425250938455359  0.011246711083615177  1.0000
  C   C28       1.0  0.15853025195560308  0.6574749063632302  0.51124671155535  1.0000
  C   C29       1.0  0.40157118183535645  0.8435536829180855  0.9338539368169968  1.0000
  C   C30       1.0  0.9015711817200157  0.6564463172906805  0.43385393686721824  1.0000
  C   C31       1.0  0.5984288183411565  0.1564463172210919  0.06614606318483487  1.0000
  C   C32       1.0  0.0984288184564972  0.3435536828484968  0.5661460631346132  1.0000
  C   C33       1.0  0.04736751455804622  0.38826821647037785  0.8120732359935671  1.0000
  C   C34       1.0  0.5473675154724338  0.11173178359921086  0.3120732360429162  1.0000
  C   C35       1.0  0.9526324845887383  0.6117317836687995  0.18792676400913694  1.0000
  C   C36       1.0  0.452632484704079  0.8882682165399665  0.6879267639589154  1.0000
  C   C37       1.0  0.11137653882011417  0.41506328326520975  0.8821181366409879  1.0000
  C   C38       1.0  0.6113765387047734  0.08493671611728927  0.38211813669120953  1.0000
  C   C39       1.0  0.8886234613563986  0.584936716186878  0.11788186336084365  1.0000
  C   C40       1.0  0.3886234614717395  0.9150632833347984  0.617881863310622  1.0000
  C   C41       1.0  0.17123124158459663  0.5121920184551233  0.8784046434926983  1.0000
  C   C42       1.0  0.6712312414692558  0.9878079817536428  0.37840464354291997  1.0000
  C   C43       1.0  0.8287687585919162  0.4878079816840541  0.12159535650913315  1.0000
  C   C44       1.0  0.328768758707257  0.01219201838553462  0.6215953564589116  1.0000
  C   C45       1.0  0.23945809490268902  0.5418325923181537  0.947076427648926  1.0000
  C   C46       1.0  0.7394580958170766  0.9581674078906125  0.44707642769827505  1.0000
  C   C47       1.0  0.7605419042440955  0.4581674078210237  0.05292357235377806  1.0000
  C   C48       1.0  0.2605419043594363  0.04183259224856496  0.5529235723035565  1.0000
  C   C49       1.0  0.11830749702971459  0.22266250512914357  0.8178945402372384  1.0000
  C   C50       1.0  0.6183074969143738  0.2773374942533554  0.31789454028746006  1.0000
  C   C51       1.0  0.8816925031467983  0.7773374943229441  0.18210545976459308  1.0000
  C   C52       1.0  0.38169250326213905  0.7226625051987323  0.6821054597143715  1.0000
  C   C53       1.0  0.24084955358186227  0.2377771763264469  0.7715085061770753  1.0000
  C   C54       1.0  0.7408495534665216  0.2622228237431418  0.27150850622729683  1.0000
  C   C55       1.0  0.7591504465946506  0.7622228231256408  0.22849149382475634  1.0000
  C   C56       1.0  0.259150445680263  0.7377771763960356  0.7284914937754071  1.0000
  C   C57       1.0  0.3557852620815458  0.16871090945538372  0.7885088200560387  1.0000
  C   C58       1.0  0.8557852629959335  0.33128908992711525  0.28850882010538786  1.0000
  C   C59       1.0  0.6442147370652387  0.8312890899967039  0.21149117994666528  1.0000
  C   C60       1.0  0.1442147371805795  0.6687109095249725  0.7114911798964437  1.0000
  C   C61       1.0  0.48401112090273  0.18843157641427877  0.7466338575679958  1.0000
  C   C62       1.0  0.9840111207873894  0.3115684229682203  0.24663385761821743  1.0000
  C   C63       1.0  0.5159888792737828  0.811568423037809  0.25336614243383576  1.0000
  C   C64       1.0  0.015988879389123564  0.6884315764838675  0.7533661423836142  1.0000
  C   C65       1.0  0.8936655377755313  0.2676106664236747  0.861102408974136  1.0000
  C   C66       1.0  0.3936655376998831  0.232389333645914  0.36110240923419834  1.0000
  C   C67       1.0  0.10633446240098163  0.732389333028413  0.1388975910276956  1.0000
  C   C68       1.0  0.6063344614469014  0.7676106664932634  0.6388975907685056  1.0000
  C   C69       1.0  0.7671309122373763  0.3287832937446214  0.8592018479125235  1.0000
  C   C70       1.0  0.2671309121365115  0.17121670632496733  0.3592018476506295  1.0000
  C   C71       1.0  0.23286908793913666  0.6712167057074663  0.14079815208930807  1.0000
  C   C72       1.0  0.7328690880400013  0.82878329381421  0.6407981523512021  1.0000
  C   C73       1.0  0.6611900568063601  0.29557310204130177  0.9114890607604103  1.0000
  C   C74       1.0  0.16119005673071188  0.20442689802828692  0.41148906102047267  1.0000
  C   C75       1.0  0.33880994337015286  0.7044268980978756  0.0885109392414213  1.0000
  C   C76       1.0  0.8388099434458011  0.7955731021108905  0.588510938981359  1.0000
  C   C77       1.0  0.5376650815916649  0.36012528513892234  0.9137174607884192  1.0000
  C   C78       1.0  0.03766508151601669  0.1398747149306663  0.41371746104848156  1.0000
  C   C79       1.0  0.46233491858484793  0.639874715000255  0.08628253921341236  1.0000
  C   C80       1.0  0.9623349176307678  0.8601252852085111  0.5862825389542223  1.0000
  C   C81       1.0  0.9377418002569953  0.27838671800354653  0.733267251930925  1.0000
  C   C82       1.0  0.4377418001561307  0.22161328206604214  0.2332672516690311  1.0000
  C   C83       1.0  0.062258198889789146  0.7216132821356308  0.2667327480717789  1.0000
  C   C84       1.0  0.5622581989906539  0.7783867180731353  0.7667327483336729  1.0000
  C   C85       1.0  0.8865425362532581  0.1832222863579242  0.7135761102376893  1.0000
  C   C86       1.0  0.38654253617761  0.3167777137116645  0.21357611049775171  1.0000
  C   C87       1.0  0.11345746392325472  0.8167777137812533  0.28642388976414224  1.0000
  C   C88       1.0  0.6134574639989029  0.6832222864275129  0.7864238895040798  1.0000
  C   C89       1.0  0.8018565105037306  0.18870029238333916  0.6453419345188319  1.0000
  C   C90       1.0  0.3018565104028659  0.3112997076862496  0.14534193425693795  1.0000
  C   C91       1.0  0.19814348967278228  0.8112997070687485  0.3546580654829997  1.0000
  C   C92       1.0  0.6981434887439186  0.6887002924529279  0.854658065745766  1.0000
  C   C93       1.0  0.7506122931011031  0.09495970708797172  0.6211136045329395  1.0000
  C   C94       1.0  0.25061229302545496  0.405040292981617  0.12111360479300187  1.0000
  C   C95       1.0  0.24938770707540983  0.9050402930512056  0.3788863954688921  1.0000
  C   C96       1.0  0.749387707151058  0.5949597071575604  0.8788863952088297  1.0000
  N   N1        1.0  0.9607862356972938  0.9276819198328674  0.04422723092655577  1.0000
  N   N2        1.0  0.4607862358126345  0.5723180803758987  0.5442272308763342  1.0000
  N   N3        1.0  0.039213763449490735  0.07231808030630997  0.9557727690761482  1.0000
  N   N4        1.0  0.53921376333415  0.42768191976327874  0.4557727691263697  1.0000
  N   N5        1.0  0.8535474469430567  0.049675490911989216  0.18663387986319419  1.0000
  N   N6        1.0  0.35354744705839747  0.45032450915759953  0.6866338798129726  1.0000
  N   N7        1.0  0.1464525532334562  0.9503245092271883  0.8133661201386374  1.0000
  N   N8        1.0  0.6464525531181156  0.549675490981578  0.313366120188859  1.0000
  N   N9        1.0  0.022900545052108166  0.7411953033267704  0.941355986994971  1.0000
  N   N10       1.0  0.5229005449367674  0.7588046968819956  0.44135598704519285  1.0000
  N   N11       1.0  0.9770994551244047  0.258804696812407  0.05864401300686034  1.0000
  N   N12       1.0  0.4770994552397455  0.24119530325718175  0.5586440129566388  1.0000
  N   N13       1.0  0.3732863217409688  0.0002940647690812032  0.9615810520581245  1.0000
  N   N14       1.0  0.873286321625628  0.49970593530050744  0.4615810521083462  1.0000
  N   N15       1.0  0.6267136784355442  0.9997059353700962  0.03841894794370699  1.0000
  N   N16       1.0  0.12671367855088483  0.5002940648386699  0.5384189478934854  1.0000
  N   N17       1.0  0.2825697925630901  0.22666602079725792  0.9806802404257741  1.0000
  N   N18       1.0  0.7825697924477494  0.2733339792723308  0.48068024047599567  1.0000
  N   N19       1.0  0.7174302076134228  0.7733339793419195  0.019319759576057548  1.0000
  N   N20       1.0  0.2174302066990352  0.7266660208668466  0.5193197595267083  1.0000
  N   N21       1.0  0.3619903980128728  0.7754067042654882  0.9084102525460258  1.0000
  N   N22       1.0  0.8619903978975322  0.7245932952561882  0.4084102525962476  1.0000
  N   N23       1.0  0.6380096021636401  0.22459329587368915  0.09158974745580559  1.0000
  N   N24       1.0  0.13800960227898085  0.2754067041958995  0.5915897474055839  1.0000
  N   N25       1.0  0.9993194954940459  0.28910713455684733  0.8062359193795551  1.0000
  N   N26       1.0  0.4993194953931811  0.21089286551274136  0.3062359191176612  1.0000
  N   N27       1.0  0.0006805046824670672  0.7108928655823301  0.19376408062227643  1.0000
  N   N28       1.0  0.5006805047833318  0.7891071346264361  0.6937640808841704  1.0000
  I   I1        1.0  0.26749929719801996  0.010801361902869901  0.14416094129646967  1.0000
  I   I2        1.0  0.7674992972988847  0.48919863816671877  0.6441609415583637  1.0000
  I   I3        1.0  0.7325007029784929  0.9891986382363075  0.8558390587053619  1.0000
  I   I4        1.0  0.23250070287762817  0.5108013619724586  0.3558390584434679  1.0000
