data_image0
_chemical_formula_structural       H8C20N4F4S2I2
_chemical_formula_sum              "H8 C20 N4 F4 S2 I2"
_cell_length_a       6.237551956505288
_cell_length_b       8.698664453504456
_cell_length_c       10.74214354217333
_cell_angle_alpha    106.7510196690848
_cell_angle_beta     102.43679770209694
_cell_angle_gamma    105.30196773443733

_space_group_name_H-M_alt    "P 1"
_space_group_IT_number       1

loop_
  _space_group_symop_operation_xyz
  'x, y, z'

loop_
  _atom_site_type_symbol
  _atom_site_label
  _atom_site_symmetry_multiplicity
  _atom_site_fract_x
  _atom_site_fract_y
  _atom_site_fract_z
  _atom_site_occupancy
  H   H1        1.0  0.04618279597919444  0.7832289001894762  0.22248973430915658  1.0000
  H   H2        1.0  0.9538172053169428  0.2167711000269157  0.7775102661759188  1.0000
  H   H3        1.0  0.2813273295471121  0.09382610817233707  0.3162989637861418  1.0000
  H   H4        1.0  0.7186726717490252  0.9061738920440549  0.6837010366989336  1.0000
  H   H5        1.0  0.9026982973409947  0.956186095676226  0.38853241395948857  1.0000
  H   H6        1.0  0.09730170235421046  0.043813904540407025  0.611467586531366  1.0000
  H   H7        1.0  0.6385158368284684  0.6501981901817754  0.2917558565143588  1.0000
  H   H8        1.0  0.36148416230219516  0.349801809557849  0.7082441429520346  1.0000
  C   C1        1.0  0.5249839952282419  0.8459622131020922  0.9977565421352554  1.0000
  C   C2        1.0  0.4750160044669632  0.15403778711454091  0.0022434583555991225  1.0000
  C   C3        1.0  0.7180397436897126  0.9975168783187202  0.05724820095319441  1.0000
  C   C4        1.0  0.2819602560054927  0.0024831218979129497  0.9427517995376602  1.0000
  C   C5        1.0  0.6980024646538057  0.1543123875996862  0.060263330174691085  1.0000
  C   C6        1.0  0.3019975350413993  0.8456876126169469  0.9397366703161635  1.0000
  C   C7        1.0  0.2368486463588269  0.827119627942886  0.2621807365491536  1.0000
  C   C8        1.0  0.7631513549373103  0.17288037227350592  0.7378192639359218  1.0000
  C   C9        1.0  0.36960151874560604  0.0007391607331897339  0.31390011915507005  1.0000
  C   C10       1.0  0.6303984825505311  0.9992608394832021  0.6860998813300054  1.0000
  C   C11       1.0  0.6148958964596649  0.0516230718624166  0.3613266357803486  1.0000
  C   C12       1.0  0.38510410427193054  0.9483769278769664  0.6386733636802656  1.0000
  C   C13       1.0  0.7136476542606978  0.922845856267023  0.354078794947378  1.0000
  C   C14       1.0  0.2863523448699657  0.07715414347260137  0.6459212045190155  1.0000
  C   C15       1.0  0.566229887485051  0.7526908530840629  0.30079725575007793  1.0000
  C   C16       1.0  0.43377011381108627  0.24730914713232902  0.6992027447349974  1.0000
  C   C17       1.0  0.7645232423419884  0.23090094567875  0.41549375736266386  1.0000
  C   C18       1.0  0.23547675678867516  0.7690990540608743  0.5845062421037295  1.0000
  C   C19       1.0  0.08088842857361894  0.4583429243545195  0.5107778957024119  1.0000
  C   C20       1.0  0.9191115711215861  0.5416570758621135  0.48922210478844275  1.0000
  N   N1        1.0  0.3318280827249257  0.7045116293497433  0.255923807607259  1.0000
  N   N2        1.0  0.6681719164057379  0.29548837038988096  0.7440761918591343  1.0000
  N   N3        1.0  0.9954255160289641  0.28609872715045254  0.47037378872356167  1.0000
  N   N4        1.0  0.004574484702631535  0.7139012725889305  0.5296262107370525  1.0000
  F   F1        1.0  0.5565688094085193  0.6977941114148255  0.9986447638323395  1.0000
  F   F2        1.0  0.4434311918876179  0.30220588880156635  0.0013552366527359177  1.0000
  F   F3        1.0  0.9295990476244846  0.9905408101486599  0.11563445733057351  1.0000
  F   F4        1.0  0.07040095207072054  0.009459190067973453  0.8843655431602812  1.0000
  S   S1        1.0  0.3581993737419841  0.6092282277453145  0.5885915376523402  1.0000
  S   S2        1.0  0.6418006253886794  0.3907717719943098  0.4114084618140533  1.0000
  I   I1        1.0  0.991479899642814  0.38363102222768664  0.14465801289003585  1.0000
  I   I2        1.0  0.008520100052391184  0.6163689779889465  0.8553419876008188  1.0000
