data_image0
_chemical_formula_structural       H58C62O6P4
_chemical_formula_sum              "H58 C62 O6 P4"
_cell_length_a       9.695773908658778
_cell_length_b       11.72744131913051
_cell_length_c       12.976551246068306
_cell_angle_alpha    70.238095534125
_cell_angle_beta     68.77794827774909
_cell_angle_gamma    87.17831330674197

_space_group_name_H-M_alt    "P 1"
_space_group_IT_number       1

loop_
  _space_group_symop_operation_xyz
  'x, y, z'

loop_
  _atom_site_type_symbol
  _atom_site_label
  _atom_site_symmetry_multiplicity
  _atom_site_fract_x
  _atom_site_fract_y
  _atom_site_fract_z
  _atom_site_occupancy
  H   H1        1.0  0.06439266715218009  0.125087384561886  0.06046205855213402  1.0000
  H   H2        1.0  0.9356073328995183  0.8749126152994158  0.9395379417725487  1.0000
  H   H3        1.0  0.18345412648236975  0.9294875950344327  0.09413392468012265  1.0000
  H   H4        1.0  0.8165458739757827  0.07051240513565929  0.9058660747641526  1.0000
  H   H5        1.0  0.05428872524586486  0.7496888867756875  0.2718148684179866  1.0000
  H   H6        1.0  0.9457112741802521  0.2503111133937433  0.7281851310277313  1.0000
  H   H7        1.0  0.8034972792531198  0.7649996754129862  0.4117507770222459  1.0000
  H   H8        1.0  0.19650272079857867  0.23500032444831545  0.5882492233024369  1.0000
  H   H9        1.0  0.6816331371842143  0.9539286873689141  0.37618409472179487  1.0000
  H   H10       1.0  0.3183668632739383  0.04607131280117801  0.6238159047224804  1.0000
  H   H11       1.0  0.8157787130717035  0.343326278445235  0.9490223169395362  1.0000
  H   H12       1.0  0.1842212873864492  0.6566737217248572  0.05097768250473898  1.0000
  H   H13       1.0  0.6747441102619075  0.34177890568966923  0.8215532603874895  1.0000
  H   H14       1.0  0.32525588978979086  0.6582210941716324  0.17844673993719332  1.0000
  H   H15       1.0  0.45781401455864495  0.19115241324750437  0.899924057348975  1.0000
  H   H16       1.0  0.5421859848674723  0.8088475869219264  0.10007594209674292  1.0000
  H   H17       1.0  0.38123365025211003  0.04252657577407415  0.10377045194635287  1.0000
  H   H18       1.0  0.6187663497995882  0.9574734240872275  0.89622954837833  1.0000
  H   H19       1.0  0.520596325510612  0.042412850521241614  0.23064363338111143  1.0000
  H   H20       1.0  0.4794036745410863  0.9575871493400602  0.7693563669435713  1.0000
  H   H21       1.0  0.5932031274658579  0.12151336359550546  0.37257218009413107  1.0000
  H   H22       1.0  0.40679687299229456  0.8784866365745865  0.6274278193501442  1.0000
  H   H23       1.0  0.4898807214769625  0.4724660405802184  0.12420298789469067  1.0000
  H   H24       1.0  0.5101192774935858  0.5275339601356105  0.8757970124273197  1.0000
  H   H25       1.0  0.2980038565895705  0.45026688975408863  0.04511089368209894  1.0000
  H   H26       1.0  0.7019961434621277  0.5497331101072132  0.9548891066425839  1.0000
  H   H27       1.0  0.10493748230530962  0.2775176734536332  0.15306264972956993  1.0000
  H   H28       1.0  0.8950625176972741  0.7224823272628572  0.8469373505909976  1.0000
  H   H29       1.0  0.10623878157728156  0.12150412445891838  0.33970728402314454  1.0000
  H   H30       1.0  0.8937612184744167  0.8784958754023832  0.6602927163015383  1.0000
  H   H31       1.0  0.29437870810766414  0.14497850437243076  0.42147343392053266  1.0000
  H   H32       1.0  0.705621291318453  0.8550214957969998  0.5785265655251852  1.0000
  H   H33       1.0  0.4769499652924954  0.5252456311136618  0.41746564243654155  1.0000
  H   H34       1.0  0.5230500347592031  0.4747543687476398  0.5825343578881411  1.0000
  H   H35       1.0  0.5893221909380293  0.7365236072323087  0.334787090924211  1.0000
  H   H36       1.0  0.41067780911366913  0.26347639262899303  0.6652129094004717  1.0000
  H   H37       1.0  0.8030450547104402  0.8065475757284716  0.14285656131902258  1.0000
  H   H38       1.0  0.1969549457477123  0.19345242444162045  0.8571434381252526  1.0000
  H   H39       1.0  0.9070104002092617  0.6604087981545181  0.03719542807371347  1.0000
  H   H40       1.0  0.09298959984243661  0.33959120170678353  0.9628045722509693  1.0000
  H   H41       1.0  0.7973373647693786  0.44966607530856245  0.12032480504809251  1.0000
  H   H42       1.0  0.202662635688774  0.5503339248615297  0.8796751943961828  1.0000
  H   H43       1.0  0.8660479287032997  0.16390861669651102  0.3689728246717949  1.0000
  H   H44       1.0  0.13395207134839882  0.8360913831647907  0.6310271756528878  1.0000
  H   H45       1.0  0.8024390458987858  0.3034473366289965  0.3788687055562269  1.0000
  H   H46       1.0  0.19756095415291258  0.6965526632323052  0.6211312947684557  1.0000
  H   H47       1.0  0.6901609675755299  0.12598581614917062  0.698238145113274  1.0000
  H   H48       1.0  0.30983903288262266  0.8740141840209216  0.3017618543310012  1.0000
  H   H49       1.0  0.6987989479529269  0.2791911801576468  0.6015584206152742  1.0000
  H   H50       1.0  0.30120105106673606  0.7208088197029936  0.39844157971085103  1.0000
  H   H51       1.0  0.8577401874376491  0.19792543284587308  0.5764014720382388  1.0000
  H   H52       1.0  0.1422598115820138  0.8020745670147672  0.4235985282878865  1.0000
  H   H53       1.0  0.748368929987247  0.5738792186453365  0.5270353764116501  1.0000
  H   H54       1.0  0.25163107006445146  0.42612078121596525  0.4729646239130326  1.0000
  H   H55       1.0  0.8897674130192424  0.5220678126267941  0.3487301801155182  1.0000
  H   H56       1.0  0.11023258743890997  0.477932187543298  0.651269819328757  1.0000
  H   H57       1.0  0.14188656847178807  0.4473005181603119  0.3218370948339165  1.0000
  H   H58       1.0  0.8581134319863643  0.55269948200978  0.6781629046103588  1.0000
  C   C1        1.0  0.8654487524691523  0.05343766309456865  0.21570480786152058  1.0000
  C   C2        1.0  0.13455124798900006  0.9465623370755234  0.7842951915827546  1.0000
  C   C3        1.0  0.007252795044373401  0.04550019873157959  0.13682041549258148  1.0000
  C   C4        1.0  0.9927472054137793  0.9544998014385125  0.8631795839516937  1.0000
  C   C5        1.0  0.0748576697025946  0.9364605596274279  0.15658748844471607  1.0000
  C   C6        1.0  0.9251423293170684  0.06353944023321235  0.8434125118814094  1.0000
  C   C7        1.0  0.002662694448325039  0.8354822854074011  0.25614691530781425  1.0000
  C   C8        1.0  0.9973373060098274  0.16451771476269095  0.743853084136461  1.0000
  C   C9        1.0  0.8623822099413507  0.8433505329170831  0.33502832157369977  1.0000
  C   C10       1.0  0.13761779011034755  0.15664946694421847  0.6649716787509831  1.0000
  C   C11       1.0  0.7927539509818318  0.9513098409655022  0.3145976704165564  1.0000
  C   C12       1.0  0.20724604906986668  0.04869015889579932  0.6854023299081264  1.0000
  C   C13       1.0  0.6768395233835263  0.19373049563149833  0.09702717124610165  1.0000
  C   C14       1.0  0.32316047666817205  0.8062695042298033  0.9029728290785812  1.0000
  C   C15       1.0  0.7201565495363267  0.2779245768715353  0.9819347709100426  1.0000
  C   C16       1.0  0.27984345092182583  0.7220754232985566  0.018065228534232574  1.0000
  C   C17       1.0  0.6414412799076143  0.2763031482999616  0.9109846416386448  1.0000
  C   C18       1.0  0.35855872014408396  0.7236968515613402  0.0890153586860379  1.0000
  C   C19       1.0  0.520077607562384  0.1913190735077232  0.9548521329478656  1.0000
  C   C20       1.0  0.47992239248931434  0.8086809263535785  0.04514786737681718  1.0000
  C   C21       1.0  0.477130235255141  0.10768812511606536  0.06959889508244967  1.0000
  C   C22       1.0  0.5228697647965574  0.8923118747452363  0.9304011052422332  1.0000
  C   C23       1.0  0.5555179536629515  0.10767497720490425  0.1408778810018707  1.0000
  C   C24       1.0  0.44448204638874705  0.8923250226563973  0.859122119322812  1.0000
  C   C25       1.0  0.6677955966608944  0.20631041798578778  0.3253982049762761  1.0000
  C   C26       1.0  0.33220440339080404  0.7936895818755139  0.6746017953484067  1.0000
  C   C27       1.0  0.405134566375999  0.30906778539706053  0.27685625057095714  1.0000
  C   C28       1.0  0.5948654336756993  0.6909322144642411  0.7231437497537255  1.0000
  C   C29       1.0  0.40644791558716087  0.395164758941014  0.1707894895553502  1.0000
  C   C30       1.0  0.5935520848709915  0.6048352412290781  0.829210509888925  1.0000
  C   C31       1.0  0.29850947516852927  0.3828369428090355  0.12681229077107828  1.0000
  C   C32       1.0  0.7014905252896232  0.6171630573610565  0.8731877086731971  1.0000
  C   C33       1.0  0.19015868613772136  0.28495564565398385  0.18731156643940897  1.0000
  C   C34       1.0  0.8098413128819418  0.7150443542066565  0.8126884338867163  1.0000
  C   C35       1.0  0.189539420551398  0.19898500959308804  0.29287259136039046  1.0000
  C   C36       1.0  0.8104605795003003  0.8010149902682138  0.7071274089642923  1.0000
  C   C37       1.0  0.29558845447991344  0.21103022382234826  0.3385008425700226  1.0000
  C   C38       1.0  0.7044115449462037  0.7889697763470825  0.6614991568756953  1.0000
  C   C39       1.0  0.6254959332859261  0.4741555064521572  0.27261384620426804  1.0000
  C   C40       1.0  0.3745040657337371  0.5258444934084832  0.7273861541218571  1.0000
  C   C41       1.0  0.568352236327531  0.5562752355020167  0.3324569216246686  1.0000
  C   C42       1.0  0.4316477637241675  0.44372476435928493  0.6675430787000141  1.0000
  C   C43       1.0  0.6313732567527923  0.6757180774478172  0.285106799869034  1.0000
  C   C44       1.0  0.3686267426733247  0.32428192272161355  0.714893199576684  1.0000
  C   C45       1.0  0.7521715210781403  0.713753556183449  0.17830680143527852  1.0000
  C   C46       1.0  0.24782847834797678  0.28624644398598165  0.8216931980104393  1.0000
  C   C47       1.0  0.8102131700202759  0.632585014843148  0.11895023763706472  1.0000
  C   C48       1.0  0.1897868300314224  0.3674149850181538  0.881049762687618  1.0000
  C   C49       1.0  0.746815657682515  0.5131293437940607  0.16545158633088872  1.0000
  C   C50       1.0  0.253184341337148  0.48687065606657975  0.8345484139952367  1.0000
  C   C51       1.0  0.7639682055090011  0.20979411971851322  0.39633667529490246  1.0000
  C   C52       1.0  0.23603179454269718  0.7902058801427885  0.6036633250297804  1.0000
  C   C53       1.0  0.6880162230793611  0.14326921884761143  0.5281756034210723  1.0000
  C   C54       1.0  0.31198377737879124  0.8567307813224806  0.4718243960232029  1.0000
  C   C55       1.0  0.735870699965449  0.18785381357698452  0.6068520213246659  1.0000
  C   C56       1.0  0.2641293000862495  0.8121461862843172  0.39314797900001686  1.0000
  C   C57       1.0  0.8581017908060038  0.5404508559668435  0.515788960872485  1.0000
  C   C58       1.0  0.14189820965214867  0.4595491442032485  0.48421103857179026  1.0000
  C   C59       1.0  0.9380295587711343  0.5116295295170662  0.41523970133932264  1.0000
  C   C60       1.0  0.06197044128056429  0.4883704703442355  0.58476029898536  1.0000
  C   C61       1.0  0.07985116529009707  0.47099197512545105  0.3995668364510971  1.0000
  C   C62       1.0  0.9201488351680556  0.5290080250446411  0.6004331629931781  1.0000
  O   O1        1.0  0.9084837537659474  0.30049877088854915  0.11316544156950233  1.0000
  O   O2        1.0  0.09151624669220501  0.6995012292815429  0.8868345578747729  1.0000
  O   O3        1.0  0.4567302918052519  0.2956287859165273  0.4745503286207467  1.0000
  O   O4        1.0  0.5432697086529005  0.7043712142535649  0.5254496708235286  1.0000
  O   O5        1.0  0.5987850071027904  0.054333234134301946  0.5663854617606962  1.0000
  O   O6        1.0  0.401214992948908  0.9456667657269997  0.43361453856398663  1.0000
  P   P1        1.0  0.7872804132572176  0.1989671630632214  0.18162705438584162  1.0000
  P   P2        1.0  0.21271958679448064  0.8010328367980805  0.818372945938841  1.0000
  P   P3        1.0  0.5337508358005713  0.32214961343416215  0.3443892163465174  1.0000
  P   P4        1.0  0.4662491646575812  0.6778503867359299  0.6556107830977579  1.0000
