data_image0
_chemical_formula_structural       H18C10N6O2S8
_chemical_formula_sum              "H18 C10 N6 O2 S8"
_cell_length_a       4.606047705660906
_cell_length_b       10.20535186733998
_cell_length_c       11.633647151726542
_cell_angle_alpha    85.0870237477506
_cell_angle_beta     87.68902310134635
_cell_angle_gamma    79.75165038519167

_space_group_name_H-M_alt    "P 1"
_space_group_IT_number       1

loop_
  _space_group_symop_operation_xyz
  'x, y, z'

loop_
  _atom_site_type_symbol
  _atom_site_label
  _atom_site_symmetry_multiplicity
  _atom_site_fract_x
  _atom_site_fract_y
  _atom_site_fract_z
  _atom_site_occupancy
  H   H1        1.0  0.1623723722145667  0.3942617270997204  0.8681071002820547  1.0000
  H   H2        1.0  0.8376276284399026  0.6057382727894001  0.13189289983628644  1.0000
  H   H3        1.0  0.24097208881496698  0.5040091086271666  0.5445142820250753  1.0000
  H   H4        1.0  0.7590279114283892  0.4959908922631019  0.4554857171669845  1.0000
  H   H5        1.0  0.5382529530759115  0.4397898054254832  0.6404487445658658  1.0000
  H   H6        1.0  0.4617470449992265  0.5602101954513959  0.35955125552108574  1.0000
  H   H7        1.0  0.20147936860464655  0.3703612504620841  0.6528252790465435  1.0000
  H   H8        1.0  0.7985206320498227  0.6296387494270365  0.34717472107179753  1.0000
  H   H9        1.0  0.16450235587225936  0.5503048382998279  0.9315583045875632  1.0000
  H   H10       1.0  0.835497644371261  0.4496951625881789  0.06844169546423731  1.0000
  H   H11       1.0  0.4944764921898483  0.4674025347185766  0.862863384896177  1.0000
  H   H12       1.0  0.5055235084646209  0.532597465170544  0.137136615222164  1.0000
  H   H13       1.0  0.6514146465991959  0.7442659464221918  0.7176288429390788  1.0000
  H   H14       1.0  0.3485853518868909  0.25573405345580097  0.2823711572144135  1.0000
  H   H15       1.0  0.9934338824759026  0.053547198259569974  0.5970905242207063  1.0000
  H   H16       1.0  0.006566118178566827  0.9464528016295505  0.4029094758976347  1.0000
  H   H17       1.0  0.3123268222319281  0.051048122557472146  0.9222350904142456  1.0000
  H   H18       1.0  0.6876731784225413  0.9489518773316483  0.07776490970409554  1.0000
  C   C1        1.0  0.2982650163071722  0.460403386211656  0.6316440493200226  1.0000
  C   C2        1.0  0.7017349843472971  0.5395966136774646  0.3683559507983184  1.0000
  C   C3        1.0  0.2526934718129962  0.48721146235140295  0.8622635477860227  1.0000
  C   C4        1.0  0.747306528841473  0.5127885375377176  0.1377364523323183  1.0000
  C   C5        1.0  0.3334715940855131  0.8955498962307323  0.6383071440099418  1.0000
  C   C6        1.0  0.6665284065689563  0.10445010365838796  0.3616928561083993  1.0000
  C   C7        1.0  0.11458593156331123  0.06745950086583015  0.7643046045949267  1.0000
  C   C8        1.0  0.8854140669227754  0.9325404990121628  0.23569539555856542  1.0000
  C   C9        1.0  0.5208733282014762  0.8944205469953188  0.8296363339953652  1.0000
  C   C10       1.0  0.479126672452993  0.10557945289380176  0.17036366612297596  1.0000
  N   N1        1.0  0.3168332509211521  0.007000136316062912  0.8442803624900326  1.0000
  N   N2        1.0  0.6831667475649346  0.9929998635619297  0.15571963766345953  1.0000
  N   N3        1.0  0.1379949362569459  0.008448760472355961  0.6617815140977912  1.0000
  N   N4        1.0  0.8620050622291408  0.9915512394056368  0.338218486055701  1.0000
  N   N5        1.0  0.5188067913502069  0.8411768602966447  0.725596051280848  1.0000
  N   N6        1.0  0.48119320930426257  0.15882313959247565  0.27440394883749303  1.0000
  O   O1        1.0  0.8134001341638649  0.5945662738097478  0.7217211471259415  1.0000
  O   O2        1.0  0.1865998664906045  0.40543372607937267  0.2782788529923996  1.0000
  S   S1        1.0  0.14836862638717815  0.5833541509856449  0.7290245223774873  1.0000
  S   S2        1.0  0.8516313742672911  0.4166458489034756  0.2709754777408539  1.0000
  S   S3        1.0  0.8627553645674405  0.1998220976096548  0.7892864381492914  1.0000
  S   S4        1.0  0.13724463567607997  0.800177903278352  0.210713561902509  1.0000
  S   S5        1.0  0.3433387317207036  0.8277974793402842  0.5129703797447164  1.0000
  S   S6        1.0  0.6566612689337656  0.1722025205488362  0.4870296203736246  1.0000
  S   S7        1.0  0.7589717009047335  0.8262271681624423  0.9309610549607544  1.0000
  S   S8        1.0  0.24102829933878703  0.17377283272556454  0.06903894509104609  1.0000
