data_image0
_chemical_formula_structural       H40C8N20F20
_chemical_formula_sum              "H40 C8 N20 F20"
_cell_length_a       8.588170908254522
_cell_length_b       7.282401710643455
_cell_length_c       12.846487299758998
_cell_angle_alpha    90.0
_cell_angle_beta     96.04923210677964
_cell_angle_gamma    90.0

_space_group_name_H-M_alt    "P 1"
_space_group_IT_number       1

loop_
  _space_group_symop_operation_xyz
  'x, y, z'

loop_
  _atom_site_type_symbol
  _atom_site_label
  _atom_site_symmetry_multiplicity
  _atom_site_fract_x
  _atom_site_fract_y
  _atom_site_fract_z
  _atom_site_occupancy
  H   H1        1.0  0.16641563346786836  0.04809209844715568  0.34118192902756855  1.0000
  H   H2        1.0  0.8335843674302678  0.5480920990895636  0.15881807140181084  1.0000
  H   H3        1.0  0.8335843668148162  0.9519079014644867  0.6588180711102759  1.0000
  H   H4        1.0  0.16641563285241673  0.4519079008220788  0.8411819287360335  1.0000
  H   H5        1.0  0.8485798737315575  0.4506081936133751  0.40120526564280057  1.0000
  H   H6        1.0  0.15142012599403054  0.9506081928826097  0.0987947339266378  1.0000
  H   H7        1.0  0.15142012655112694  0.5493918062982672  0.5987947344950438  1.0000
  H   H8        1.0  0.848579874287017  0.049391807029032814  0.9012052654326691  1.0000
  H   H9        1.0  0.08588633719457865  0.6506744791453314  0.36310764935092354  1.0000
  H   H10       1.0  0.9141136625326465  0.15067447987609675  0.13689235099705233  1.0000
  H   H11       1.0  0.9141136619171947  0.3493255207663111  0.6368923507055173  1.0000
  H   H12       1.0  0.08588633775003814  0.849325521408719  0.8631076491407921  1.0000
  H   H13       1.0  0.3794670781613846  0.49588125916235987  0.3325713480152739  1.0000
  H   H14       1.0  0.6205329215642036  0.9958812584315944  0.1674286515541645  1.0000
  H   H15       1.0  0.620532922119663  0.5041187407492825  0.6674286513440331  1.0000
  H   H16       1.0  0.37946707871848095  0.004118741480048039  0.8325713485836799  1.0000
  H   H17       1.0  0.3989804140105862  0.26011208874010733  0.32014508408772435  1.0000
  H   H18       1.0  0.6010195857150019  0.7601120880093418  0.179854915481714  1.0000
  H   H19       1.0  0.6010195862704614  0.7398879125447084  0.6798549152715825  1.0000
  H   H20       1.0  0.3989804133967715  0.23988791190230055  0.8201450845747268  1.0000
  H   H21       1.0  0.7603106173639868  0.09827414339887672  0.4138598330725568  1.0000
  H   H22       1.0  0.23968938353414948  0.5982741440412845  0.08614016735682266  1.0000
  H   H23       1.0  0.23968938291869782  0.9017258565127657  0.5861401670652876  1.0000
  H   H24       1.0  0.7603106167485351  0.4017258558703578  0.9138598327810217  1.0000
  H   H25       1.0  0.901833106461898  0.9301305708115768  0.38546753633562614  1.0000
  H   H26       1.0  0.09816689326369012  0.43013057154234224  0.1145324632338122  1.0000
  H   H27       1.0  0.0981668926498754  0.06986942910006569  0.6145324637208147  1.0000
  H   H28       1.0  0.9018331070173575  0.5698694283693002  0.8854675361254947  1.0000
  H   H29       1.0  0.3557312359360732  0.31335400746498654  0.5974364828841873  1.0000
  H   H30       1.0  0.6442687637327966  0.8133540081073943  0.9025635177406596  1.0000
  H   H31       1.0  0.6442687643466114  0.6866459924466559  0.4025635172536571  1.0000
  H   H32       1.0  0.3557312353789768  0.18664599180424798  0.09743648231578131  1.0000
  H   H33       1.0  0.5744572006703543  0.1246052615682776  0.6630617207753166  1.0000
  H   H34       1.0  0.4255427989968786  0.6246052608375121  0.8369382790709927  1.0000
  H   H35       1.0  0.42554279844141907  0.8753947383433648  0.3369382792811242  1.0000
  H   H36       1.0  0.574457201284169  0.3753947390741303  0.16306172028831417  1.0000
  H   H37       1.0  0.5847763319028028  0.28769186227916604  0.5119997959020658  1.0000
  H   H38       1.0  0.4152236677644301  0.7876918629215739  0.9880002039442436  1.0000
  H   H39       1.0  0.41522366720897064  0.7123081376324764  0.48800020415437506  1.0000
  H   H40       1.0  0.5847763325182543  0.21230813836324186  0.011999796193600767  1.0000
  C   C1        1.0  0.9672456349371326  0.19656172879173966  0.37844612592131877  1.0000
  C   C2        1.0  0.03275436596100367  0.6965617294341475  0.12155387450806071  1.0000
  C   C3        1.0  0.03275436534555203  0.8034382711199027  0.6215538742165256  1.0000
  C   C4        1.0  0.9672456343216808  0.30343827047749483  0.8784461256297836  1.0000
  C   C5        1.0  0.18258205739568237  0.34391987554593484  0.34439141762684744  1.0000
  C   C6        1.0  0.8174179423315427  0.8439198761883426  0.15560858272112843  1.0000
  C   C7        1.0  0.8174179428870022  0.6560801243657076  0.655608582510997  1.0000
  C   C8        1.0  0.18258205795114185  0.1560801237232997  0.8443914174167159  1.0000
  N   N1        1.0  0.11578979894485651  0.1733535116793845  0.35205815867439083  1.0000
  N   N2        1.0  0.8842102019532796  0.6733535123217924  0.14794184175498853  1.0000
  N   N3        1.0  0.884210201337828  0.826646488232258  0.6479418414634536  1.0000
  N   N4        1.0  0.11578979832940488  0.32664648758985  0.8520581583828559  1.0000
  N   N5        1.0  0.9465496170733728  0.3777057994452442  0.387018976954902  1.0000
  N   N6        1.0  0.053450382652215404  0.8777058000876521  0.1129810226145364  1.0000
  N   N7        1.0  0.05345038203840068  0.6222942004663982  0.6129810231015388  1.0000
  N   N8        1.0  0.9465496176304691  0.12229419982399037  0.8870189775233079  1.0000
  N   N9        1.0  0.07953975022071226  0.47136411672855905  0.36460226791087125  1.0000
  N   N10       1.0  0.9204602506774239  0.971364117370967  0.13539773251850817  1.0000
  N   N11       1.0  0.9204602500619722  0.5286358831830833  0.635397732226973  1.0000
  N   N12       1.0  0.07953974960526063  0.028635882540675457  0.8646022676193362  1.0000
  N   N13       1.0  0.3270683212994209  0.3712213425481489  0.31801022340201096  1.0000
  N   N14       1.0  0.6729316795970783  0.8712213418173834  0.18198977624883095  1.0000
  N   N15       1.0  0.6729316789832637  0.6287786587366668  0.6819897767358334  1.0000
  N   N16       1.0  0.32706832068396924  0.12877865809425895  0.818010223110476  1.0000
  N   N17       1.0  0.866658865015472  0.06327104138275941  0.3916562608659124  1.0000
  N   N18       1.0  0.1333411347101161  0.5632710420251673  0.10834373870352598  1.0000
  N   N19       1.0  0.13334113526557562  0.9367289585288829  0.6083437384933945  1.0000
  N   N20       1.0  0.8666588655725684  0.4367289578864751  0.8916562614343184  1.0000
  F   F1        1.0  0.522022464099383  0.28732460157229084  0.6091851400781108  1.0000
  F   F2        1.0  0.4779775355678499  0.7873246022146987  0.8908148597681985  1.0000
  F   F3        1.0  0.4779775361833016  0.7126753983393516  0.39081486005973365  1.0000
  F   F4        1.0  0.5220224647148346  0.21267539769694369  0.10918514036964579  1.0000
  F   F5        1.0  0.23956189128096217  0.3235219909053641  0.5849394801872322  1.0000
  F   F6        1.0  0.7604381083862708  0.8235219901745986  0.9150605196590772  1.0000
  F   F7        1.0  0.7604381090017224  0.6764780090062783  0.4150605199506122  1.0000
  F   F8        1.0  0.23956189072386574  0.17647800973704378  0.08493947961882616  1.0000
  F   F9        1.0  0.6107887556216424  0.010030306333313484  0.7002121212291762  1.0000
  F   F10       1.0  0.38921124521813855  0.5100303069757214  0.7997878794770742  1.0000
  F   F11       1.0  0.3892112446610421  0.9899696935783289  0.2997878789086681  1.0000
  F   F12       1.0  0.6107887550645459  0.4899696929359211  0.20021212066077027  1.0000
  F   F13       1.0  0.6268651597589325  0.2864750192166571  0.44230245430016313  1.0000
  F   F14       1.0  0.3731348399666556  0.7864750184858916  0.057697545269275265  1.0000
  F   F15       1.0  0.373134840523752  0.7135249806949853  0.5576975458376813  1.0000
  F   F16       1.0  0.6268651603160289  0.21352498142575085  0.9423024548685691  1.0000
  F   F17       1.0  0.09019865708871685  0.802785334054779  0.3601926630823021  1.0000
  F   F18       1.0  0.9098013426385081  0.3027853347855444  0.1398073372656738  1.0000
  F   F19       1.0  0.9098013431939677  0.19721466585686345  0.6398073370555424  1.0000
  F   F20       1.0  0.0901986564732652  0.697214665126098  0.8601926627907671  1.0000
