data_image0
_chemical_formula_structural       H124C96N14O12Cl2
_chemical_formula_sum              "H124 C96 N14 O12 Cl2"
_cell_length_a       10.656877099028208
_cell_length_b       14.597572047029676
_cell_length_c       14.966880752907002
_cell_angle_alpha    74.54074376955106
_cell_angle_beta     82.76249281432001
_cell_angle_gamma    88.13660303502088

_space_group_name_H-M_alt    "P 1"
_space_group_IT_number       1

loop_
  _space_group_symop_operation_xyz
  'x, y, z'

loop_
  _atom_site_type_symbol
  _atom_site_label
  _atom_site_symmetry_multiplicity
  _atom_site_fract_x
  _atom_site_fract_y
  _atom_site_fract_z
  _atom_site_occupancy
  H   H1        1.0  0.004623634081244191  0.25073943249802255  0.8049516692492539  1.0000
  H   H2        1.0  0.9953763658446193  0.749260567519633  0.19504833100173208  1.0000
  H   H3        1.0  0.05789430546979813  0.10477752455494818  0.7517508782786195  1.0000
  H   H4        1.0  0.9421056944560654  0.8952224754627074  0.24824912197236632  1.0000
  H   H5        1.0  0.05308627737328648  0.2710398967473422  0.4658257959979788  1.0000
  H   H6        1.0  0.9469137225525771  0.7289601032703132  0.5341742042530071  1.0000
  H   H7        1.0  0.9994329602556974  0.4144007459481084  0.5198512207435921  1.0000
  H   H8        1.0  0.0005670397891929541  0.5855992542591703  0.4801487788089803  1.0000
  H   H9        1.0  0.046478393121826084  0.8159519545460817  0.7090827371218468  1.0000
  H   H10       1.0  0.9535216069230644  0.18404804566119692  0.29091726243072574  1.0000
  H   H11       1.0  0.08922872814937545  0.6428589136609211  0.7343265091889071  1.0000
  H   H12       1.0  0.9107712718955151  0.3571410865463574  0.2656734903636653  1.0000
  H   H13       1.0  0.26843111892382504  0.8735780563884157  0.4397602481276825  1.0000
  H   H14       1.0  0.7315688811210654  0.12642194381886288  0.5602397514248899  1.0000
  H   H15       1.0  0.16322560925063181  0.5198323410787108  0.5905461771639767  1.0000
  H   H16       1.0  0.8367743906752318  0.4801676589389448  0.40945382308700906  1.0000
  H   H17       1.0  0.27297423403775173  0.5214553326065605  0.6694089807808001  1.0000
  H   H18       1.0  0.7270257660071386  0.4785446676007179  0.33059101877177244  1.0000
  H   H19       1.0  0.4410942455224394  0.5671841171832416  0.5438156410315321  1.0000
  H   H20       1.0  0.5589057545224511  0.4328158830240371  0.45618435852104033  1.0000
  H   H21       1.0  0.343120567603576  0.5200560117436721  0.48067395503491095  1.0000
  H   H22       1.0  0.6568794323222877  0.47994398827398327  0.5193260452160748  1.0000
  H   H23       1.0  0.4428529943025874  0.5813269636522078  0.30892944939633143  1.0000
  H   H24       1.0  0.5571470056232762  0.4186730363654475  0.6910705508546544  1.0000
  H   H25       1.0  0.5423217629824318  0.5969892278136779  0.38966834599147254  1.0000
  H   H26       1.0  0.45767823694343174  0.4030107722039774  0.6103316542595133  1.0000
  H   H27       1.0  0.6527498719233165  0.7262206490945426  0.27831502707341715  1.0000
  H   H28       1.0  0.347250128121574  0.2737793511127359  0.7216849724791552  1.0000
  H   H29       1.0  0.6075917478492663  0.6690939620954771  0.19697519960570223  1.0000
  H   H30       1.0  0.39240825219562414  0.3309060381118015  0.8030247999468703  1.0000
  H   H31       1.0  0.5767472699376395  0.8607289879039693  0.08508320652053747  1.0000
  H   H32       1.0  0.42325273014499787  0.1392710116183231  0.9149167930305449  1.0000
  H   H33       1.0  0.41266576848764924  0.9864090242078409  0.058980216164594125  1.0000
  H   H34       1.0  0.5873342315572414  0.013590975999437583  0.9410197833879783  1.0000
  H   H35       1.0  0.2049578664182015  0.8534684004758609  0.32549723891526766  1.0000
  H   H36       1.0  0.7950421345643088  0.1465315997357202  0.6745027606402184  1.0000
  H   H37       1.0  0.17379409961605954  0.23119906009794539  0.9577351390964692  1.0000
  H   H38       1.0  0.826205900428831  0.7688009401093331  0.04226486045610324  1.0000
  H   H39       1.0  0.17164662957286217  0.40291306024566725  0.8745802828286691  1.0000
  H   H40       1.0  0.8283533704720284  0.5970869399616113  0.1254197167239033  1.0000
  H   H41       1.0  0.1340397991927439  0.4756405723807686  0.1373895606248673  1.0000
  H   H42       1.0  0.8659602008521466  0.5243594278265099  0.8626104389277052  1.0000
  H   H43       1.0  0.13728456564229222  0.3039072648554979  0.22136509926039546  1.0000
  H   H44       1.0  0.8627154342835714  0.6960927351621576  0.7786349009905904  1.0000
  H   H45       1.0  0.10786862316173071  0.11756234222701235  0.4963559261714564  1.0000
  H   H46       1.0  0.8921313767641327  0.8824376577906432  0.5036440740795294  1.0000
  H   H47       1.0  0.16312443363833387  0.9915200970293272  0.4858965630550253  1.0000
  H   H48       1.0  0.8368755662875298  0.008479902988328443  0.5141034371959605  1.0000
  H   H49       1.0  0.16142449970866604  0.006370772155159977  0.24665973662812887  1.0000
  H   H50       1.0  0.8385755002171976  0.9936292278624955  0.753340263622857  1.0000
  H   H51       1.0  0.15455196636131122  0.15077647791550985  0.218401698313607  1.0000
  H   H52       1.0  0.8454480336835795  0.8492235222917687  0.7815983012389655  1.0000
  H   H53       1.0  0.8468228429933279  0.14296931047713732  0.9220937594378564  1.0000
  H   H54       1.0  0.15317715693253575  0.8570306895405184  0.07790624081312944  1.0000
  H   H55       1.0  0.00855997227313525  0.14085086523684354  0.9404912019291117  1.0000
  H   H56       1.0  0.9914400276527283  0.8591491347808119  0.059508798321874085  1.0000
  H   H57       1.0  0.9020734673118874  0.21776090619366267  0.9852380211990656  1.0000
  H   H58       1.0  0.0979265326139761  0.7822390938239928  0.014761979051920381  1.0000
  H   H59       1.0  0.9499970359563642  0.06863775464817257  0.11215601316256822  1.0000
  H   H60       1.0  0.05000296396949941  0.931362245369483  0.8878439870884176  1.0000
  H   H61       1.0  0.8954146332591821  0.9984709001634963  0.045476276316669645  1.0000
  H   H62       1.0  0.10458536678570833  0.001529100043782323  0.9545237232359027  1.0000
  H   H63       1.0  0.6829902609965872  0.07885907516986443  0.05596877706650393  1.0000
  H   H64       1.0  0.3170097390483033  0.9211409250374141  0.9440312224860685  1.0000
  H   H65       1.0  0.7242448909267759  0.0022447780321735215  0.16084796629904205  1.0000
  H   H66       1.0  0.2757551099367076  0.9977552219897846  0.8391520339548573  1.0000
  H   H67       1.0  0.7819918722070928  0.13394715174711325  0.2190478017054812  1.0000
  H   H68       1.0  0.21800812783779758  0.8660528484601653  0.7809521978470912  1.0000
  H   H69       1.0  0.7713335348916267  0.2180810136194019  0.11064980037758484  1.0000
  H   H70       1.0  0.22866646515326375  0.7819189865878767  0.8893501991749875  1.0000
  H   H71       1.0  0.6629903873512839  0.8396616940303271  0.4259225399500173  1.0000
  H   H72       1.0  0.3370096126936066  0.16033830617695152  0.5740774596025551  1.0000
  H   H73       1.0  0.518196111407522  0.8150231808394892  0.500109816880756  1.0000
  H   H74       1.0  0.48180388945596153  0.18497681918246903  0.49989018337314345  1.0000
  H   H75       1.0  0.6204670467627434  0.9050302221043054  0.509270389927223  1.0000
  H   H76       1.0  0.37953295316312  0.09496977791335008  0.4907296103237628  1.0000
  H   H77       1.0  0.429060476720576  0.9702651801557811  0.4215269733935775  1.0000
  H   H78       1.0  0.5709395232052876  0.029734819861874397  0.5784730268574084  1.0000
  H   H79       1.0  0.4829061163601929  0.9071997611020829  0.3394670011200096  1.0000
  H   H80       1.0  0.5170938835656708  0.09280023891557249  0.6605329991309762  1.0000
  H   H81       1.0  0.6894899883064379  0.003030815199838268  0.3067126259316142  1.0000
  H   H82       1.0  0.3105100116194256  0.9969691848178172  0.6932873743193717  1.0000
  H   H83       1.0  0.6142291157070227  0.07356869356915367  0.3770118244178991  1.0000
  H   H84       1.0  0.3857708843756147  0.926431305953139  0.6229881751331832  1.0000
  H   H85       1.0  0.5204577232706846  0.037142504678451635  0.2031347476350272  1.0000
  H   H86       1.0  0.4795422766551789  0.9628574953392037  0.7968652526159586  1.0000
  H   H87       1.0  0.43429600938034657  0.10301403248885593  0.2737569370218344  1.0000
  H   H88       1.0  0.565703990664544  0.8969859677184225  0.726243062530738  1.0000
  H   H89       1.0  0.518851658748899  0.1504523082838149  0.0725038634262149  1.0000
  H   H90       1.0  0.4811483412959915  0.8495476919234635  0.9274961361263576  1.0000
  H   H91       1.0  0.4268041381951142  0.22156900196035345  0.13384543539976138  1.0000
  H   H92       1.0  0.5731958618497762  0.7784309982469251  0.8661545641528111  1.0000
  H   H93       1.0  0.6129173812407034  0.3466603362782713  0.07180462050732062  1.0000
  H   H94       1.0  0.38708261868516014  0.6533396637393841  0.9281953797436652  1.0000
  H   H95       1.0  0.6636458841987085  0.2794811655294721  0.9923107564973039  1.0000
  H   H96       1.0  0.3363541158461819  0.7205188346778065  0.007689243055268467  1.0000
  H   H97       1.0  0.40296810858944204  0.3707219724352497  0.016454129184699795  1.0000
  H   H98       1.0  0.5970318913364215  0.6292780275824058  0.983545871066286  1.0000
  H   H99       1.0  0.4438609085735306  0.2984656689423231  0.9405396085295674  1.0000
  H   H100      1.0  0.556139091352333  0.7015343310753325  0.059460391721418336  1.0000
  H   H101      1.0  0.5768248437776721  0.4865029161942513  0.9290325251674649  1.0000
  H   H102      1.0  0.42317515614819146  0.5134970838234042  0.07096747508352083  1.0000
  H   H103      1.0  0.4670326667757112  0.4709923857890961  0.8543203244981087  1.0000
  H   H104      1.0  0.5329673332691792  0.5290076144181826  0.14567967505446372  1.0000
  H   H105      1.0  0.6172941163550603  0.4137367779992177  0.8520576055954101  1.0000
  H   H106      1.0  0.38270588360855023  0.5862632213334518  0.14794239465408568  1.0000
  H   H107      1.0  0.6360702969668215  0.2117393910778337  0.30759383164585763  1.0000
  H   H108      1.0  0.3639297029590421  0.7882606089398217  0.6924061686051282  1.0000
  H   H109      1.0  0.6650315009133964  0.30159941314996525  0.20259110715171824  1.0000
  H   H110      1.0  0.3349684991314941  0.6984005870573133  0.7974088924008542  1.0000
  H   H111      1.0  0.396625309260464  0.23277745214243822  0.29465162357800195  1.0000
  H   H112      1.0  0.6033746907844265  0.7672225480648404  0.7053483759745705  1.0000
  H   H113      1.0  0.43441258676826455  0.33271430377497674  0.1986807212280566  1.0000
  H   H114      1.0  0.5655874131575991  0.6672856962426787  0.8013192790229292  1.0000
  H   H115      1.0  0.5104988391150449  0.3105159838305093  0.39332713715195344  1.0000
  H   H116      1.0  0.4895011609298456  0.6894840163767693  0.6066728624006189  1.0000
  H   H117      1.0  0.5337220160623751  0.41231976667012876  0.298306595096985  1.0000
  H   H118      1.0  0.4662779839825154  0.5876802335371498  0.7016934044555875  1.0000
  H   H119      1.0  0.2957029630765141  0.4281361220243287  0.2965382412260709  1.0000
  H   H120      1.0  0.7042970368493495  0.5718638779933269  0.7034617590249148  1.0000
  H   H121      1.0  0.336805785569177  0.42793371763889776  0.4073939035024383  1.0000
  H   H122      1.0  0.6631942143566866  0.5720662823787577  0.5926060967485476  1.0000
  H   H123      1.0  0.27422158317088824  0.3239202389239493  0.3901524218933214  1.0000
  H   H124      1.0  0.7257784167549753  0.6760797610937062  0.6098475783576646  1.0000
  C   C1        1.0  0.9984790115215026  0.3401214470429444  0.6660749022783582  1.0000
  C   C2        1.0  0.00152098840436095  0.659878552974711  0.3339250979726277  1.0000
  C   C3        1.0  0.016877771545016292  0.2536718817023574  0.7311087843544257  1.0000
  C   C4        1.0  0.9831222284998742  0.7463281185049212  0.26889121519814674  1.0000
  C   C5        1.0  0.04692101670476978  0.17258835244977971  0.7014343830862251  1.0000
  C   C6        1.0  0.9530789832588407  0.8274116468828897  0.2985656171632706  1.0000
  C   C7        1.0  0.05942806480773862  0.17783857470967096  0.6049700663220968  1.0000
  C   C8        1.0  0.940571935118125  0.8221614253079844  0.395029933928889  1.0000
  C   C9        1.0  0.04431576213204837  0.2666956119837347  0.5402036326061714  1.0000
  C   C10       1.0  0.9556842377938154  0.733304388033921  0.45979636764481435  1.0000
  C   C11       1.0  0.01319832384276571  0.34700816049321526  0.5702009144710871  1.0000
  C   C12       1.0  0.986801676083098  0.6529918395244402  0.4297990857798987  1.0000
  C   C13       1.0  0.09372798129481474  0.005546134303849493  0.6153233540993713  1.0000
  C   C14       1.0  0.9062720186310489  0.9944538657138061  0.3846766461516146  1.0000
  C   C15       1.0  0.15486667935718065  0.8546573109733547  0.5728386309106864  1.0000
  C   C16       1.0  0.84513332162533  0.14534268923822657  0.4271613686447995  1.0000
  C   C17       1.0  0.10333303981970715  0.7896135581650064  0.6558755445080794  1.0000
  C   C18       1.0  0.8966669601439032  0.21038644116766317  0.3441244557414163  1.0000
  C   C19       1.0  0.1270489751149941  0.6926150869982453  0.6690609527620368  1.0000
  C   C20       1.0  0.8729510249298965  0.3073849132090334  0.33093904679053554  1.0000
  C   C21       1.0  0.22784942916418646  0.8219692421092178  0.5026598619158511  1.0000
  C   C22       1.0  0.7721505709184509  0.178030757413075  0.4973401376352312  1.0000
  C   C23       1.0  0.2504124632812177  0.7246783369681745  0.5155437167468796  1.0000
  C   C24       1.0  0.7495875367636727  0.27532166323910406  0.4844562828056929  1.0000
  C   C25       1.0  0.201254800450549  0.6601857369289046  0.6004626424234324  1.0000
  C   C26       1.0  0.7987451994753146  0.3398142630887509  0.3995373578275535  1.0000
  C   C27       1.0  0.2420857712034124  0.5602604035566778  0.6022404794967892  1.0000
  C   C28       1.0  0.7579142287224511  0.43973959646097766  0.3977595207541967  1.0000
  C   C29       1.0  0.3472870663766492  0.5737051484016401  0.5193170869994506  1.0000
  C   C30       1.0  0.6527129335869613  0.4262948509310294  0.48068291325004514  1.0000
  C   C31       1.0  0.3297575108370003  0.6734628404016942  0.45760225777791874  1.0000
  C   C32       1.0  0.6702424890888632  0.32653715961596136  0.5423977424730672  1.0000
  C   C33       1.0  0.3876599870523042  0.6990477405587636  0.36811523409216795  1.0000
  C   C34       1.0  0.6123400128735594  0.30095225945889176  0.6318847661588178  1.0000
  C   C35       1.0  0.4877244636517432  0.6352390591263907  0.33392945861884077  1.0000
  C   C36       1.0  0.5122755363931472  0.3647609410808879  0.6660705409337317  1.0000
  C   C37       1.0  0.5704081312400114  0.7025041560554107  0.25244203246881297  1.0000
  C   C38       1.0  0.4295918686858522  0.29749584396224493  0.7475579677821729  1.0000
  C   C39       1.0  0.48341498431772734  0.7849383784801863  0.2205808659902733  1.0000
  C   C40       1.0  0.5165850156081363  0.21506162153746913  0.7794191342607125  1.0000
  C   C41       1.0  0.4955440176058718  0.8575546188235575  0.13812099725023386  1.0000
  C   C42       1.0  0.5044559823199918  0.142445381194098  0.8618790030007519  1.0000
  C   C43       1.0  0.404261986910536  0.9292195308926652  0.12302165279239331  1.0000
  C   C44       1.0  0.5957380130530745  0.0707804684400042  0.8769783474571025  1.0000
  C   C45       1.0  0.300740015571667  0.9287312832809749  0.19168691935989246  1.0000
  C   C46       1.0  0.6992599843541967  0.07126871673668064  0.8083130808910934  1.0000
  C   C47       1.0  0.2868855664429195  0.8543223256350695  0.2740236555820189  1.0000
  C   C48       1.0  0.713114433482944  0.14567767438258597  0.725976344668967  1.0000
  C   C49       1.0  0.3788921918726075  0.7831494000994589  0.289612638993615  1.0000
  C   C50       1.0  0.621107808091003  0.21685059923321065  0.7103873612558806  1.0000
  C   C51       1.0  0.2169165704074531  0.0867379396261252  0.11423133589305201  1.0000
  C   C52       1.0  0.7830834296751842  0.9132620598961675  0.8857686636580303  1.0000
  C   C53       1.0  0.15770227212985863  0.25587973512815826  0.0951019082216059  1.0000
  C   C54       1.0  0.8422977279150319  0.7441202650791204  0.9048980913309665  1.0000
  C   C55       1.0  0.1655657930821256  0.28436658521914754  0.9966777289688907  1.0000
  C   C56       1.0  0.8344342069627648  0.7156334149881309  0.0033222705836817227  1.0000
  C   C57       1.0  0.1660520516141139  0.37996353215523765  0.9502543044947522  1.0000
  C   C58       1.0  0.8339479483117498  0.6200364678624178  0.04974569575623347  1.0000
  C   C59       1.0  0.1579980397993436  0.44810776072045194  0.0010449532501974547  1.0000
  C   C60       1.0  0.8420019602455469  0.5518922394868268  0.998955046302375  1.0000
  C   C61       1.0  0.14371099592859918  0.4216029090727364  0.09889602512321621  1.0000
  C   C62       1.0  0.8562890039972644  0.5783970909449191  0.9011039751277696  1.0000
  C   C63       1.0  0.1442585766588805  0.32591974083070785  0.14528493450915508  1.0000
  C   C64       1.0  0.8557414232669832  0.6740802591869478  0.8547150657418308  1.0000
  C   C65       1.0  0.9113498584469153  0.1468555001272457  0.9728233517110476  1.0000
  C   C66       1.0  0.0886501415979753  0.8531445000800328  0.027176647841524695  1.0000
  C   C67       1.0  0.8829523426862028  0.06713434461306768  0.062328886922198005  1.0000
  C   C68       1.0  0.11704765723966071  0.9328656554045878  0.9376711133287878  1.0000
  C   C69       1.0  0.7474136770106118  0.07064350631965417  0.10953988025381953  1.0000
  C   C70       1.0  0.2525863238528719  0.9293564937023039  0.8904601200000799  1.0000
  C   C71       1.0  0.7321204908177814  0.15114181346192318  0.15690386137095907  1.0000
  C   C72       1.0  0.26787950922710907  0.8488581867453553  0.8430961381816133  1.0000
  C   C73       1.0  0.5829136120869712  0.8724055058027276  0.4599027549635332  1.0000
  C   C74       1.0  0.41708638795791936  0.12759449440455092  0.5400972445890392  1.0000
  C   C75       1.0  0.515071891166955  0.9436533550949937  0.38786892377588983  1.0000
  C   C76       1.0  0.4849281088779356  0.05634664511228483  0.6121310757766826  1.0000
  C   C77       1.0  0.596893864720768  0.02849468336248084  0.33153520750605375  1.0000
  C   C78       1.0  0.4031061352050956  0.9715053166551748  0.6684647927449321  1.0000
  C   C79       1.0  0.5300673354097614  0.08265574541768438  0.24956455173429742  1.0000
  C   C80       1.0  0.46993266463512917  0.9173442547895941  0.7504354478182749  1.0000
  C   C81       1.0  0.5236071272430544  0.20873047800417033  0.1053282201461216  1.0000
  C   C82       1.0  0.4763928726828092  0.7912695220134851  0.8946717801048643  1.0000
  C   C83       1.0  0.5801679180047139  0.2974899645859473  0.03541443551228527  1.0000
  C   C84       1.0  0.4198320819211496  0.7025100354317082  0.9645855647387006  1.0000
  C   C85       1.0  0.483108031688549  0.34862765947167235  0.9729409287075694  1.0000
  C   C86       1.0  0.5168919682373146  0.6513723405459831  0.02705907154341632  1.0000
  C   C87       1.0  0.538950087669778  0.4346923818472984  0.8977667686646393  1.0000
  C   C88       1.0  0.4610499122560855  0.5653076181703571  0.10223323158634645  1.0000
  C   C89       1.0  0.596733304196688  0.24686206292133517  0.2428660120624273  1.0000
  C   C90       1.0  0.40326669572917556  0.7531379370963203  0.7571339881885585  1.0000
  C   C91       1.0  0.46767758927390146  0.2890209000403454  0.26332943948351717  1.0000
  C   C92       1.0  0.5323224106519621  0.7109790999773101  0.7366705607674686  1.0000
  C   C93       1.0  0.47021109731542005  0.3512183953871653  0.33046706254004377  1.0000
  C   C94       1.0  0.5297889027294703  0.6487816048201132  0.6695329370125286  1.0000
  C   C95       1.0  0.3374552739405762  0.3848153460469918  0.3575286986327237  1.0000
  C   C96       1.0  0.6625447259852876  0.6151846539706637  0.642471301618262  1.0000
  N   N1        1.0  0.9611387458641565  0.4228814114754363  0.6984345932466315  1.0000
  N   N2        1.0  0.038861254218480884  0.5771185880468562  0.3015654063044508  1.0000
  N   N3        1.0  0.0856932804895232  0.10131406268162735  0.5681291148536259  1.0000
  N   N4        1.0  0.9143067195553672  0.8986859375256512  0.4318708846989465  1.0000
  N   N5        1.0  0.1357710022668187  0.9529614206051353  0.5540582598354931  1.0000
  N   N6        1.0  0.8642289976590448  0.04703857941252034  0.44594174041549284  1.0000
  N   N7        1.0  0.21286518443881638  0.00354426176131823  0.18490547323091225  1.0000
  N   N8        1.0  0.7871348154870472  0.9964557382563372  0.8150945270200735  1.0000
  N   N9        1.0  0.16259506160981618  0.1619502884025732  0.14652497563706207  1.0000
  N   N10       1.0  0.8374049392536675  0.838049711619385  0.8534750246168372  1.0000
  N   N11       1.0  0.16882410015753344  0.5474649492877162  0.9516091055924258  1.0000
  N   N12       1.0  0.831175899806077  0.45253505004495337  0.04839089465707  1.0000
  N   N13       1.0  0.5959464959450784  0.17224969526778042  0.18869460164077034  1.0000
  N   N14       1.0  0.4040535039807851  0.827750304749875  0.8113053986102156  1.0000
  O   O1        1.0  0.9578302926863476  0.41715545778606067  0.7835367046103626  1.0000
  O   O2        1.0  0.04216970723951616  0.582844542231595  0.21646329564062328  1.0000
  O   O3        1.0  0.9336225950998405  0.4970596503036959  0.6399038694735745  1.0000
  O   O4        1.0  0.06637740482602324  0.5029403497139597  0.3600961307774113  1.0000
  O   O5        1.0  0.06676471561975154  0.9741272184173582  0.7010396956030406  1.0000
  O   O6        1.0  0.9332352844251389  0.02587278178992041  0.29896030394953177  1.0000
  O   O7        1.0  0.26453689058810564  0.09474378667172509  0.03264453540303839  1.0000
  O   O8        1.0  0.7354631093377578  0.9052562133459302  0.9673554648479474  1.0000
  O   O9        1.0  0.1426437469244095  0.6079720321179777  0.9961253349612273  1.0000
  O   O10       1.0  0.8573562531204809  0.3920279680893008  0.0038746645913451732  1.0000
  O   O11       1.0  0.20707724698406305  0.5686362047683741  0.865849887998141  1.0000
  O   O12       1.0  0.7929227530608276  0.43136379543890435  0.1341501115544315  1.0000
  Cl  Cl1       1.0  0.20278127662763648  0.10537699375292028  0.3597658527602212  1.0000
  Cl  Cl2       1.0  0.7972187232982272  0.8946230062647353  0.6402341474907645  1.0000
