data_image0
_chemical_formula_structural       H112C40N36O4F24P16S8Cl4
_chemical_formula_sum              "H112 C40 N36 O4 F24 P16 S8 Cl4"
_cell_length_a       9.82219532406784
_cell_length_b       10.839440634104463
_cell_length_c       24.02292664202734
_cell_angle_alpha    90.0
_cell_angle_beta     100.21279760409827
_cell_angle_gamma    90.0

_space_group_name_H-M_alt    "P 1"
_space_group_IT_number       1

loop_
  _space_group_symop_operation_xyz
  'x, y, z'

loop_
  _atom_site_type_symbol
  _atom_site_label
  _atom_site_symmetry_multiplicity
  _atom_site_fract_x
  _atom_site_fract_y
  _atom_site_fract_z
  _atom_site_occupancy
  H   H1        1.0  0.4676526525155704  0.3530467871155204  0.8249068285485207  1.0000
  H   H2        1.0  0.5323473475644346  0.8530467864649119  0.6750931716746496  1.0000
  H   H3        1.0  0.5323473475827225  0.6469532134283764  0.17509317156622708  1.0000
  H   H4        1.0  0.46765265253385824  0.14695321315642798  0.32490682844009816  1.0000
  H   H5        1.0  0.566612726433838  0.2750375578071798  0.7800831366933351  1.0000
  H   H6        1.0  0.4333872734602112  0.7750375580791282  0.7199168631068661  1.0000
  H   H7        1.0  0.4333872736644549  0.7249624418141601  0.21991686342141267  1.0000
  H   H8        1.0  0.5666127264521259  0.2249624424647686  0.2800831365849126  1.0000
  H   H9        1.0  0.4161602878654042  0.36218205002645393  0.7497756853104385  1.0000
  H   H10       1.0  0.583839712028645  0.8621820502984023  0.7502243144897627  1.0000
  H   H11       1.0  0.5838397120469327  0.637817949594886  0.25022431438134  1.0000
  H   H12       1.0  0.4161602878836921  0.13781794932293764  0.24977568520201596  1.0000
  H   H13       1.0  0.41965747238158413  0.5928882971857296  0.7736797417638505  1.0000
  H   H14       1.0  0.5803425275124651  0.09288829691378118  0.7263202580363506  1.0000
  H   H15       1.0  0.5803425275307529  0.4071117033581672  0.226320257927928  1.0000
  H   H16       1.0  0.4196574725858279  0.9071117027075587  0.2736797420783972  1.0000
  H   H17       1.0  0.5818975864320554  0.6598186014781281  0.8062428933746076  1.0000
  H   H18       1.0  0.4181024136479498  0.15981860120617963  0.6937571068485625  1.0000
  H   H19       1.0  0.4181024136662376  0.3401813990657688  0.19375710674013996  1.0000
  H   H20       1.0  0.5818975864503432  0.8401813984151604  0.30624289326618526  1.0000
  H   H21       1.0  0.4925779402658114  0.5580612823292393  0.8454816783525275  1.0000
  H   H22       1.0  0.5074220596282377  0.05806128205729096  0.6545183214476736  1.0000
  H   H23       1.0  0.5074220596465255  0.4419387182146574  0.15451832133925109  1.0000
  H   H24       1.0  0.4925779404700551  0.941938717564049  0.3454816786670741  1.0000
  H   H25       1.0  0.8767607607447295  0.3598868236545577  0.6677935818694921  1.0000
  H   H26       1.0  0.12323923933527545  0.8598868239265061  0.8322064183536781  1.0000
  H   H27       1.0  0.1232392393535633  0.6401131759667823  0.3322064182452557  1.0000
  H   H28       1.0  0.8767607607630175  0.14011317569483386  0.16779358176106954  1.0000
  H   H29       1.0  0.6949736045849352  0.3532037241805796  0.640272928549661  1.0000
  H   H30       1.0  0.3050263954950699  0.8532037244525281  0.8597270716735094  1.0000
  H   H31       1.0  0.30502639551335764  0.6467962754407603  0.35972707156508676  1.0000
  H   H32       1.0  0.694973604603223  0.14679627516881194  0.1402729284412384  1.0000
  H   H33       1.0  0.7808882359419856  0.22083274135646982  0.673262675232179  1.0000
  H   H34       1.0  0.21911176395206344  0.7208327407058615  0.8267373245680221  1.0000
  H   H35       1.0  0.21911176397035134  0.779167259187427  0.3267373244595996  1.0000
  H   H36       1.0  0.7808882361462295  0.2791672589154786  0.17326267554672564  1.0000
  H   H37       1.0  0.8474924268792192  0.21759481320272614  0.7785873200428075  1.0000
  H   H38       1.0  0.1525075730148299  0.7175948134746746  0.7214126797573935  1.0000
  H   H39       1.0  0.1525075730331177  0.7824051864186139  0.2214126796489709  1.0000
  H   H40       1.0  0.8474924270834631  0.2824051870692223  0.27858732035735434  1.0000
  H   H41       1.0  0.8113737521191243  0.3507923359104358  0.8173793161735153  1.0000
  H   H42       1.0  0.18862624796088076  0.8507923361823843  0.6826206840496549  1.0000
  H   H43       1.0  0.18862624797916858  0.649207664633461  0.1826206839412324  1.0000
  H   H44       1.0  0.8113737521374121  0.1492076643615126  0.3173793160650928  1.0000
  H   H45       1.0  0.9482036322963624  0.35456962676723314  0.7768129120959628  1.0000
  H   H46       1.0  0.05179636778364277  0.8545696270391815  0.7231870881272076  1.0000
  H   H47       1.0  0.051796366784288346  0.6454303728541069  0.22318708801983875  1.0000
  H   H48       1.0  0.9482036323146501  0.1454303735047153  0.27681291198754016  1.0000
  H   H49       1.0  0.8070418920263049  0.7785402812621439  0.7127183302163957  1.0000
  H   H50       1.0  0.19295810805370014  0.2785402819127523  0.7872816700067746  1.0000
  H   H51       1.0  0.19295810807198796  0.2214597183591961  0.28728166989835213  1.0000
  H   H52       1.0  0.8070418920445928  0.7214597186311446  0.2127183301079731  1.0000
  H   H53       1.0  0.7098701934834412  0.6742452250723371  0.6631308055612598  1.0000
  H   H54       1.0  0.29012980641060804  0.1742452248003887  0.8368691942389412  1.0000
  H   H55       1.0  0.29012980661485177  0.32575477547155973  0.33686919455348796  1.0000
  H   H56       1.0  0.709870193501729  0.8257547748209513  0.16313080545283726  1.0000
  H   H57       1.0  0.8890329995768522  0.6455131142085988  0.6885850301392767  1.0000
  H   H58       1.0  0.11096700031719686  0.14551311393665034  0.8114149696609242  1.0000
  H   H59       1.0  0.11096700052144068  0.35448688541274126  0.311414969975471  1.0000
  H   H60       1.0  0.8890329995951401  0.8544868856846897  0.1885850300308542  1.0000
  H   H61       1.0  0.9580193135109344  0.5824039812661019  0.793355876133975  1.0000
  H   H62       1.0  0.041980686383114724  0.08240398099415357  0.7066441236662261  1.0000
  H   H63       1.0  0.04198068556971618  0.417596018355238  0.2066441239818264  1.0000
  H   H64       1.0  0.9580193135292223  0.9175960186271864  0.29335587602555246  1.0000
  H   H65       1.0  0.8205534625751648  0.5659090018630645  0.8334384345398603  1.0000
  H   H66       1.0  0.17944653750484033  0.06590900159111614  0.66656156568331  1.0000
  H   H67       1.0  0.17944653752312814  0.43409099868083223  0.16656156557488747  1.0000
  H   H68       1.0  0.8205534625934525  0.9340909980302239  0.3334384344314377  1.0000
  H   H69       1.0  0.868996576451716  0.7154058370504349  0.8130179029098206  1.0000
  H   H70       1.0  0.1310034234423331  0.2154058377010433  0.6869820968903804  1.0000
  H   H71       1.0  0.13100342346062097  0.2845941625709051  0.18698209678195793  1.0000
  H   H72       1.0  0.8689965766559598  0.7845941628428534  0.3130179032243673  1.0000
  H   H73       1.0  0.5425308803550097  0.12325247539033891  0.4985875393220385  1.0000
  H   H74       1.0  0.45746911976157095  0.6232524756622874  0.001412460684286729  1.0000
  H   H75       1.0  0.45746911974328314  0.8767475242310011  0.5014124607927093  1.0000
  H   H76       1.0  0.5425308803367219  0.37674752395905264  0.9985875394304611  1.0000
  H   H77       1.0  0.5231280270743446  0.24802200323339035  0.44994622256207806  1.0000
  H   H78       1.0  0.47687197202459386  0.7480220025827818  0.05005377744530082  1.0000
  H   H79       1.0  0.476871972006306  0.7519779973105064  0.5500537775537233  1.0000
  H   H80       1.0  0.5231280278877432  0.25197799703855805  0.9499462222464777  1.0000
  H   H81       1.0  0.7065877714378752  0.0197486122417133  0.4420593730253937  1.0000
  H   H82       1.0  0.29341222867870553  0.5197486125136617  0.05794062698093151  1.0000
  H   H83       1.0  0.29341222866041766  0.9802513873796267  0.557940627089354  1.0000
  H   H84       1.0  0.7065877714195874  0.48025138803023504  0.9420593731338163  1.0000
  H   H85       1.0  0.7676940186653177  0.16695364097535953  0.46835401492357903  1.0000
  H   H86       1.0  0.23230598145126308  0.6669536412473079  0.03164598508274622  1.0000
  H   H87       1.0  0.2323059814329753  0.8330463586459804  0.5316459851911688  1.0000
  H   H88       1.0  0.7676940186470299  0.333046358374032  0.9683540150320016  1.0000
  H   H89       1.0  0.6910191553812394  0.1490044241691111  0.3960390100130441  1.0000
  H   H90       1.0  0.3089808437176991  0.6490044235185027  0.10396098999433474  1.0000
  H   H91       1.0  0.3089808436994113  0.8509955763747857  0.6039609901027573  1.0000
  H   H92       1.0  0.6910191561946378  0.3509955761028373  0.8960390096974438  1.0000
  H   H93       1.0  0.27900494299398354  0.20137301302543986  0.4181492089151682  1.0000
  H   H94       1.0  0.7209950571225971  0.7013730132973882  0.081850791091157  1.0000
  H   H95       1.0  0.7209950571043093  0.7986269865959001  0.5818507911995795  1.0000
  H   H96       1.0  0.2790049429756957  0.29862698724650855  0.9181492090235908  1.0000
  H   H97       1.0  0.30276841264902604  0.08849375372581202  0.47257520611682574  1.0000
  H   H98       1.0  0.6972315874675546  0.5884937539977604  0.02742479388949943  1.0000
  H   H99       1.0  0.6972315874492669  0.911506245895528  0.527424793997922  1.0000
  H   H100      1.0  0.3027684124447823  0.4115062456235795  0.9725752058022791  1.0000
  H   H101      1.0  0.21181355836209703  0.031013682471980615  0.34539639318380005  1.0000
  H   H102      1.0  0.7881864407368415  0.5310136818213722  0.15460360682357882  1.0000
  H   H103      1.0  0.7881864417361958  0.9689863180719162  0.6546036069309477  1.0000
  H   H104      1.0  0.21181355815785333  0.4689863177999678  0.8453963928692534  1.0000
  H   H105      1.0  0.10010648491757397  0.037933239719613134  0.39619547126628935  1.0000
  H   H106      1.0  0.8998935151990067  0.5379332390690047  0.10380452874003582  1.0000
  H   H107      1.0  0.899893514994763  0.9620667608242837  0.6038045284254892  1.0000
  H   H108      1.0  0.10010648489928614  0.4620667605523353  0.8961954713747119  1.0000
  H   H109      1.0  0.22973824898768092  0.9218599895792094  0.401777230310934  1.0000
  H   H110      1.0  0.7702617511288997  0.4218599902298179  0.09822276969539118  1.0000
  H   H111      1.0  0.7702617509246561  0.07814001004213049  0.5982227693808445  1.0000
  H   H112      1.0  0.2297382489693931  0.5781400103140789  0.9017772304193565  1.0000
  C   C1        1.0  0.5055622159920783  0.3574444550034758  0.7846776815530836  1.0000
  C   C2        1.0  0.49443778408792677  0.8574444552754242  0.7153223186700867  1.0000
  C   C3        1.0  0.4944377841062146  0.6425555446178641  0.21532231856166406  1.0000
  C   C4        1.0  0.5055622160103662  0.14255554434591575  0.28467768144466116  1.0000
  C   C5        1.0  0.5171612457156913  0.5775040263890127  0.8036158167607302  1.0000
  C   C6        1.0  0.4828387543643137  0.0775040270396211  0.69638418346244  1.0000
  C   C7        1.0  0.48283875438260154  0.4224959732323273  0.19638418335401742  1.0000
  C   C8        1.0  0.5171612457339791  0.9224959735042757  0.30361581665230775  1.0000
  C   C9        1.0  0.7770098895513347  0.3219934485381641  0.6742280145045176  1.0000
  C   C10       1.0  0.22299011052867046  0.8219934488101126  0.8257719857186526  1.0000
  C   C11       1.0  0.22299011054695833  0.6780065510831759  0.32577198561023013  1.0000
  C   C12       1.0  0.7770098895696225  0.17800655173378432  0.17422801439609512  1.0000
  C   C13       1.0  0.8440925651124428  0.3189498975733476  0.7785813216183102  1.0000
  C   C14       1.0  0.15590743478160643  0.818949897845296  0.721418678181891  1.0000
  C   C15       1.0  0.15590743498585016  0.6810501020479924  0.22141867849643762  1.0000
  C   C16       1.0  0.8440925651307306  0.181050101776044  0.2785813215098876  1.0000
  C   C17       1.0  0.793059382697648  0.681441882412252  0.6999739960323249  1.0000
  C   C18       1.0  0.20694061738235703  0.18144188306286047  0.8000260041908454  1.0000
  C   C19       1.0  0.20694061740064482  0.31855811720908794  0.30002600408242275  1.0000
  C   C20       1.0  0.793059382715936  0.8185581174810362  0.1999739959239025  1.0000
  C   C21       1.0  0.8573669790517131  0.6183677734172831  0.8001127697568753  1.0000
  C   C22       1.0  0.14263302102829192  0.11836777406789153  0.6998872304662949  1.0000
  C   C23       1.0  0.14263302104657977  0.3816322262040569  0.19988723035787237  1.0000
  C   C24       1.0  0.8573669790700008  0.8816322264760054  0.30011276964845285  1.0000
  C   C25       1.0  0.5461090840331817  0.1484751957528448  0.4542553136541848  1.0000
  C   C26       1.0  0.45389091608339904  0.6484751960247932  0.04574468635214043  1.0000
  C   C27       1.0  0.45389091606511117  0.8515248038684953  0.5457446864605631  1.0000
  C   C28       1.0  0.5461090840148939  0.3515248035965468  0.9542553137626073  1.0000
  C   C29       1.0  0.6858496925857851  0.11924697072772798  0.4393399538306487  1.0000
  C   C30       1.0  0.31415030753079565  0.6192469700771196  0.06066004617567645  1.0000
  C   C31       1.0  0.3141503073265519  0.8807530298161689  0.5606600458611297  1.0000
  C   C32       1.0  0.6858496925674972  0.38075302954422047  0.9393399539390713  1.0000
  C   C33       1.0  0.3061151697614474  0.10352279032456811  0.42729380883435397  1.0000
  C   C34       1.0  0.6938848303551333  0.6035227896739597  0.07270619117197122  1.0000
  C   C35       1.0  0.6938848301508895  0.8964772102193286  0.5727061908574245  1.0000
  C   C36       1.0  0.3061151697431596  0.39647720994738034  0.9272938089427765  1.0000
  C   C37       1.0  0.20620248433939375  0.018547544729148286  0.39036457979473876  1.0000
  C   C38       1.0  0.7937975157771869  0.5185475450010967  0.10963542021158643  1.0000
  C   C39       1.0  0.7937975157588991  0.9814524558147485  0.609635420320009  1.0000
  C   C40       1.0  0.20620248432110597  0.48145245554280014  0.8903645799031613  1.0000
  N   N1        1.0  0.13808511111294525  0.4497238754795527  0.4297677366671325  1.0000
  N   N2        1.0  0.8619148890036354  0.9497238757515011  0.07023226333919264  1.0000
  N   N3        1.0  0.8619148887993917  0.5502761241417872  0.5702322630246459  1.0000
  N   N4        1.0  0.13808511109465738  0.050276124792395634  0.929767736775555  1.0000
  N   N5        1.0  0.3538607477963629  0.39281877116454944  0.5156638383252564  1.0000
  N   N6        1.0  0.6461392522836421  0.8928187705139411  0.9843361618979138  1.0000
  N   N7        1.0  0.6461392523019299  0.6071812293793473  0.48433616178949135  1.0000
  N   N8        1.0  0.35386074781465066  0.10718122910739894  0.015663838216833814  1.0000
  N   N9        1.0  0.2200620296691036  0.2499994235379549  0.5817265411888981  1.0000
  N   N10       1.0  0.7799379702249456  0.7499994228873464  0.9182734586113029  1.0000
  N   N11       1.0  0.7799379704291893  0.7500005770059419  0.41827345892584966  1.0000
  N   N12       1.0  0.22006202968739141  0.2500005767339935  0.08172654108047558  1.0000
  N   N13       1.0  0.3573661539848276  0.45293253920806387  0.6252246894016172  1.0000
  N   N14       1.0  0.6426338459092216  0.9529325385574553  0.8747753103985838  1.0000
  N   N15       1.0  0.6426338461134653  0.547067461335833  0.3747753107131305  1.0000
  N   N16       1.0  0.3573661540031155  0.04706746106388456  0.1252246892931947  1.0000
  N   N17       1.0  0.13038118815371189  0.5449624624922386  0.5761094639932952  1.0000
  N   N18       1.0  0.8696188117403373  0.04496246222029017  0.9238905358069058  1.0000
  N   N19       1.0  0.869618811758625  0.45503753805165825  0.4238905356984833  1.0000
  N   N20       1.0  0.13038118835795562  0.9550375374010498  0.07610946430784193  1.0000
  N   N21       1.0  0.00787018246664304  0.2946116379799552  0.49233231486614015  1.0000
  N   N22       1.0  0.9921298176499378  0.7946116382519036  0.007667685140185042  1.0000
  N   N23       1.0  0.9921298176316499  0.7053883616413849  0.5076676852486076  1.0000
  N   N24       1.0  0.007870182262399297  0.20538836229199323  0.9923323145515935  1.0000
  N   N25       1.0  0.5931141165953375  0.4689343031232855  0.7881760821542731  1.0000
  N   N26       1.0  0.4068858834846676  0.9689343024726771  0.7118239180688971  1.0000
  N   N27       1.0  0.40688588248531316  0.5310656974206114  0.21182391796152825  1.0000
  N   N28       1.0  0.5931141166136253  0.031065697148662922  0.28817608204585066  1.0000
  N   N29       1.0  0.7445610260222526  0.35921023246802314  0.7291909916329128  1.0000
  N   N30       1.0  0.2554389740577524  0.8592102318174147  0.7708090085902575  1.0000
  N   N31       1.0  0.25543897407604027  0.6407897680758737  0.2708090084818349  1.0000
  N   N32       1.0  0.7445610260405404  0.14078976780392527  0.22919099152449035  1.0000
  N   N33       1.0  0.7550412641924862  0.6127647555079537  0.7476743796177974  1.0000
  N   N34       1.0  0.24495873588751899  0.1127647552360053  0.752325620605373  1.0000
  N   N35       1.0  0.24495873590580683  0.3872352441133863  0.25232562049695045  1.0000
  N   N36       1.0  0.7550412642107739  0.8872352443853346  0.24767437950937476  1.0000
  O   O1        1.0  0.44267613564441605  0.07993047605002919  0.41705853607578186  1.0000
  O   O2        1.0  0.5573238644721648  0.5799304753994208  0.08294146393054337  1.0000
  O   O3        1.0  0.5573238644538769  0.9200695244938676  0.5829414640389659  1.0000
  O   O4        1.0  0.44267613544017226  0.42006952422191923  0.9170585357612352  1.0000
  F   F1        1.0  0.3869987936510469  0.46012011213086496  0.42006235235538053  1.0000
  F   F2        1.0  0.6130012064655339  0.9601201124028134  0.07993764765094467  1.0000
  F   F3        1.0  0.6130012062612901  0.539879887490475  0.579937647336398  1.0000
  F   F4        1.0  0.3869987936327591  0.03987988814108339  0.9200623524638031  1.0000
  F   F5        1.0  0.3038874730119695  0.6119646441098884  0.47685073401450634  1.0000
  F   F6        1.0  0.6961125271046112  0.11196464476049676  0.023149265991818907  1.0000
  F   F7        1.0  0.6961125269003676  0.38803535551145163  0.5231492656772723  1.0000
  F   F8        1.0  0.30388747299368163  0.8880353557834  0.9768507341229288  1.0000
  F   F9        1.0  0.475753939136167  0.2695757648975228  0.5959597479763471  1.0000
  F   F10       1.0  0.524246060943838  0.7695757642469143  0.9040402522468232  1.0000
  F   F11       1.0  0.5242460609621259  0.730424235646374  0.40404025213840067  1.0000
  F   F12       1.0  0.47575393915445485  0.23042423537442563  0.09595974786792456  1.0000
  F   F13       1.0  0.96689199122945  0.2566457397485286  0.5909546562208127  1.0000
  F   F14       1.0  0.03310800866459903  0.756645740020477  0.9090453435793884  1.0000
  F   F15       1.0  0.03310800886884282  0.7433542598728115  0.4090453438939351  1.0000
  F   F16       1.0  0.9668919912477378  0.24335425960086293  0.09095465611239012  1.0000
  F   F17       1.0  0.04671863559446951  0.08954932756824815  0.5424233295619328  1.0000
  F   F18       1.0  0.9532813642995795  0.5895493278401965  0.9575766702382681  1.0000
  F   F19       1.0  0.9532813645038234  0.9104506720530918  0.45757667055281487  1.0000
  F   F20       1.0  0.04671863561275735  0.4104506727037002  0.04242332945351039  1.0000
  F   F21       1.0  0.9926611921471661  0.2698944925991285  0.3875108988936632  1.0000
  F   F22       1.0  0.007338807969414537  0.7698944928710769  0.11248910111266205  1.0000
  F   F23       1.0  0.007338807951126705  0.7301055070222114  0.6124891012210846  1.0000
  F   F24       1.0  0.9926611919429225  0.2301055076728199  0.8875108985791164  1.0000
  P   P1        1.0  0.2863876858974242  0.47034307323564306  0.4640588546606087  1.0000
  P   P2        1.0  0.7136123142191566  0.9703430735075914  0.03594114534571651  1.0000
  P   P3        1.0  0.7136123142008687  0.529656926385697  0.5359411454541391  1.0000
  P   P4        1.0  0.2863876856931805  0.02965692611374857  0.9640588543460621  1.0000
  P   P5        1.0  0.3389438899089676  0.34500267921887673  0.5760196795668707  1.0000
  P   P6        1.0  0.6610561099850816  0.8450026785682683  0.9239803202333303  1.0000
  P   P7        1.0  0.6610561089857271  0.6549973213250201  0.42398032012596143  1.0000
  P   P8        1.0  0.33894389011321135  0.15499732105307165  0.07601967988141747  1.0000
  P   P9        1.0  0.06940246274671123  0.23273364605759675  0.5489090468540869  1.0000
  P   P10       1.0  0.930597537147338  0.7327336454069883  0.9510909529461142  1.0000
  P   P11       1.0  0.9305975373515818  0.7672663544863001  0.4510909532606608  1.0000
  P   P12       1.0  0.06940246276499908  0.2672663542143517  0.04890904674566437  1.0000
  P   P13       1.0  0.008471975554349271  0.36997761742262897  0.43706182569804186  1.0000
  P   P14       1.0  0.9915280245622313  0.8699776176945774  0.06293817430828337  1.0000
  P   P15       1.0  0.9915280243579876  0.630022382198711  0.5629381739937366  1.0000
  P   P16       1.0  0.008471975536061509  0.1300223828493194  0.9370618258064645  1.0000
  S   S1        1.0  0.24543452875595168  0.5505243878752065  0.6301167184318728  1.0000
  S   S2        1.0  0.7545654711380974  0.05052438760325813  0.8698832813683282  1.0000
  S   S3        1.0  0.7545654713423412  0.4494756117461334  0.369883281682875  1.0000
  S   S4        1.0  0.24543452877423952  0.9494756120180817  0.13011671832345026  1.0000
  S   S5        1.0  0.6605329975387035  0.490036343138185  0.7283050952536299  1.0000
  S   S6        1.0  0.3394670025413015  0.9900363424875765  0.7716949049695404  1.0000
  S   S7        1.0  0.33946700255958934  0.5099636574057118  0.2716949048611179  1.0000
  S   S8        1.0  0.6605329975569914  0.009963657133763418  0.2283050951452073  1.0000
  Cl  Cl1       1.0  0.1305942929279486  0.4724897015336744  0.7093142410536539  1.0000
  Cl  Cl2       1.0  0.8694057069661005  0.9724897018056228  0.790685758746547  1.0000
  Cl  Cl3       1.0  0.8694057071703443  0.5275102980876656  0.29068575906109373  1.0000
  Cl  Cl4       1.0  0.13059429294623648  0.027510297815717177  0.20931424094523146  1.0000
