data_image0
_chemical_formula_structural       H44C48N4O8
_chemical_formula_sum              "H44 C48 N4 O8"
_cell_length_a       3.8455012067968166
_cell_length_b       19.613637882397505
_cell_length_c       12.857876287522059
_cell_angle_alpha    90.0
_cell_angle_beta     93.1297992821185
_cell_angle_gamma    90.0

_space_group_name_H-M_alt    "P 1"
_space_group_IT_number       1

loop_
  _space_group_symop_operation_xyz
  'x, y, z'

loop_
  _atom_site_type_symbol
  _atom_site_label
  _atom_site_symmetry_multiplicity
  _atom_site_fract_x
  _atom_site_fract_y
  _atom_site_fract_z
  _atom_site_occupancy
  H   H1        1.0  0.4386211451183844  0.3337657587670215  0.4148006251896523  1.0000
  H   H2        1.0  0.5613788531372129  0.8337657587059032  0.08519937421721167  1.0000
  H   H3        1.0  0.5613788529945283  0.6662342411107419  0.5851993745322461  1.0000
  H   H4        1.0  0.4386211449756998  0.1662342411718602  0.9148006255046867  1.0000
  H   H5        1.0  0.09486322903582223  0.45384312300314117  0.5943611637189408  1.0000
  H   H6        1.0  0.9051367715386803  0.9538431229420229  0.9056388363556303  1.0000
  H   H7        1.0  0.9051367716813649  0.5461568768746222  0.40563883604059575  1.0000
  H   H8        1.0  0.0948632291948725  0.046156876935740526  0.09436116418189158  1.0000
  H   H9        1.0  0.7546111915387815  0.3688317273611113  0.2567643451122285  1.0000
  H   H10       1.0  0.24538880933745572  0.868831727299993  0.24323565511025885  1.0000
  H   H11       1.0  0.24538880919477113  0.6311682730265015  0.7432356554252932  1.0000
  H   H12       1.0  0.7546111913797314  0.13116827308761977  0.7567643446492776  1.0000
  H   H13       1.0  0.9405320694939129  0.29856787583783934  0.10690265785320519  1.0000
  H   H14       1.0  0.05946792877805021  0.7985678762865703  0.39309734233164406  1.0000
  H   H15       1.0  0.05946793122327438  0.701432124039924  0.8930973419063314  1.0000
  H   H16       1.0  0.9405320693512281  0.2014321241010424  0.6069026581682396  1.0000
  H   H17       1.0  0.8439557312246455  0.17215868316965424  0.10895340901530016  1.0000
  H   H18       1.0  0.15604426704731747  0.6721586836183853  0.3910465911695491  1.0000
  H   H19       1.0  0.1560442668882672  0.8278413167081092  0.8910465907065983  1.0000
  H   H20       1.0  0.843955731081961  0.32784131676922745  0.6089534093303346  1.0000
  H   H21       1.0  0.6139861596869222  0.06989586981364339  0.20379979525910272  1.0000
  H   H22       1.0  0.3860138385850408  0.5698958697525252  0.29620020492574656  1.0000
  H   H23       1.0  0.38601383844235626  0.9301041300641201  0.796200205240781  1.0000
  H   H24       1.0  0.6139861595278719  0.43010413012523835  0.7037997947961518  1.0000
  H   H25       1.0  0.16422983336341895  0.10015476128286094  0.4990889157033833  1.0000
  H   H26       1.0  0.8357701675128184  0.6001547612217426  0.0009110845191040281  1.0000
  H   H27       1.0  0.8357701673537681  0.8998452385949026  0.5009110840561531  1.0000
  H   H28       1.0  0.1642298332043687  0.3998452386560208  0.9990889152404324  1.0000
  H   H29       1.0  0.2837400319088992  0.22465655613814078  0.4900152197730635  1.0000
  H   H30       1.0  0.7162599663466981  0.7246565560770225  0.00998477963380047  1.0000
  H   H31       1.0  0.7162599662040136  0.7753434437396226  0.509984779948835  1.0000
  H   H32       1.0  0.2837400317662146  0.2753434438007409  0.9900152200880978  1.0000
  H   H33       1.0  0.45671287398813576  0.9721854438392018  0.30603383373327  1.0000
  H   H34       1.0  0.5432871268717359  0.4721854439003201  0.19396616571123207  1.0000
  H   H35       1.0  0.5432871267290513  0.027814556038561596  0.6939661660262665  1.0000
  H   H36       1.0  0.4567128738454512  0.5278145559774433  0.8060338340483044  1.0000
  H   H37       1.0  0.022032473396216213  0.9933965538074024  0.32791248908479487  1.0000
  H   H38       1.0  0.9779675248593811  0.4933965533586715  0.17208751032206912  1.0000
  H   H39       1.0  0.9779675247166965  0.00660344658021025  0.6720875106371036  1.0000
  H   H40       1.0  0.022032473253531637  0.506603446519092  0.8279124893998293  1.0000
  H   H41       1.0  0.3228559879956273  0.9826847714618869  0.4364462899331206  1.0000
  H   H42       1.0  0.6771440128806101  0.48268477152300526  0.06355371028936677  1.0000
  H   H43       1.0  0.6771440127379256  0.017315228415876446  0.5635537106044012  1.0000
  H   H44       1.0  0.3228559878365771  0.5173152283547582  0.9364462894701698  1.0000
  C   C1        1.0  0.2276581075184392  0.42556198498448633  0.4345359783069059  1.0000
  C   C2        1.0  0.7723418933577982  0.9255619849233682  0.06546402191558148  1.0000
  C   C3        1.0  0.7723418932151136  0.5744380148932771  0.565464022230616  1.0000
  C   C4        1.0  0.22765810735938893  0.07443801495439532  0.934535977843955  1.0000
  C   C5        1.0  0.0770966027937058  0.47043011272685653  0.5132881550943231  1.0000
  C   C6        1.0  0.9229033977807969  0.9704301126657381  0.9867118449802478  1.0000
  C   C7        1.0  0.9229033979234813  0.5295698876607563  0.4867118446652134  1.0000
  C   C8        1.0  0.07709660293639037  0.029569887212025255  0.013288154779288686  1.0000
  C   C9        1.0  0.7167629818436388  0.3137728552398321  0.25525803865912955  1.0000
  C   C10       1.0  0.28323701903259857  0.8137728551787139  0.24474196156335778  1.0000
  C   C11       1.0  0.28323701887354835  0.6862271446379312  0.7447419611004069  1.0000
  C   C12       1.0  0.7167629816845885  0.18622714469904955  0.7552580381961786  1.0000
  C   C13       1.0  0.820225860381741  0.2738075186357803  0.17143218064028481  1.0000
  C   C14       1.0  0.17977414049449655  0.773807518574662  0.3285678195822025  1.0000
  C   C15       1.0  0.17977414033544628  0.7261924812419831  0.8285678191192516  1.0000
  C   C16       1.0  0.8202258602390562  0.22619248130310146  0.6714321809553193  1.0000
  C   C17       1.0  0.7668754444248176  0.20431554839688681  0.1728946898284181  1.0000
  C   C18       1.0  0.23312455645141988  0.7043155488456179  0.3271053103940692  1.0000
  C   C19       1.0  0.2331245563087353  0.7956844514808766  0.8271053107091039  1.0000
  C   C20       1.0  0.7668754442657673  0.29568445154199485  0.6728946893654673  1.0000
  C   C21       1.0  0.5381900661112956  0.1037018391078491  0.26610378065233387  1.0000
  C   C22       1.0  0.4618099347485761  0.6037018390467308  0.2338962187921682  1.0000
  C   C23       1.0  0.46180993460589154  0.8962981612797637  0.7338962191072026  1.0000
  C   C24       1.0  0.5381900659686112  0.39629816083103264  0.7661037809673683  1.0000
  C   C25       1.0  0.3792953815274415  0.0766511612488396  0.3509466275513973  1.0000
  C   C26       1.0  0.620704619348796  0.5766511611877213  0.14905337267109  1.0000
  C   C27       1.0  0.6207046191897456  0.9233488386289238  0.6490533722081392  1.0000
  C   C28       1.0  0.3792953813847569  0.4233488386900421  0.8509466278664318  1.0000
  C   C29       1.0  0.289743045842955  0.12141559328660889  0.4322520242834192  1.0000
  C   C30       1.0  0.7102569550169168  0.6214155937353399  0.06774797516108287  1.0000
  C   C31       1.0  0.7102569548742321  0.8785844065911547  0.5677479754761173  1.0000
  C   C32       1.0  0.2897430457002705  0.37858440665227283  0.9322520245984537  1.0000
  C   C33       1.0  0.3532288755040575  0.1904067971679866  0.4278361978097748  1.0000
  C   C34       1.0  0.64677112537218  0.6904067971068684  0.07216380241271259  1.0000
  C   C35       1.0  0.6467711252131296  0.8095932027097769  0.5721638019497618  1.0000
  C   C36       1.0  0.3532288753613729  0.30959320277089514  0.9278361981248091  1.0000
  C   C37       1.0  0.5117658428391235  0.21849230702102487  0.34088634064671786  1.0000
  C   C38       1.0  0.48823415803711395  0.7184923069599066  0.15911365957576945  1.0000
  C   C39       1.0  0.48823415789442937  0.7815076933665879  0.6591136598908041  1.0000
  C   C40       1.0  0.5117658426800732  0.2815076934277061  0.8408863401837671  1.0000
  C   C41       1.0  0.6071236488177771  0.17439696860467796  0.2585057229459886  1.0000
  C   C42       1.0  0.39287634945418587  0.6743969685435597  0.2414942772388607  1.0000
  C   C43       1.0  0.39287634929513565  0.8256030317829348  0.74149427677591  1.0000
  C   C44       1.0  0.607123651279367  0.32560303133420376  0.7585057232986612  1.0000
  C   C45       1.0  0.29324688757332584  0.00210422310473263  0.356311429560388  1.0000
  C   C46       1.0  0.7067531133029116  0.5021042235534636  0.14368857066209934  1.0000
  C   C47       1.0  0.706753113160227  0.9978957767730309  0.6436885709771338  1.0000
  C   C48       1.0  0.29324688741427557  0.49789577683414904  0.8563114290974373  1.0000
  N   N1        1.0  0.56966997589708  0.28714451973514105  0.33676945106731965  1.0000
  N   N2        1.0  0.43033002496279166  0.7871445201838722  0.16323054837718243  1.0000
  N   N3        1.0  0.43033002482010707  0.7128554801426225  0.6632305486922168  1.0000
  N   N4        1.0  0.5696699757543955  0.21285548020374068  0.8367694513823541  1.0000
  O   O1        1.0  0.3364003907225966  0.36651070459761587  0.4747824859356123  1.0000
  O   O2        1.0  0.6635996101536407  0.8665107045364976  0.025217514286875038  1.0000
  O   O3        1.0  0.6635996100109562  0.6334892957899969  0.5252175146019096  1.0000
  O   O4        1.0  0.33640039056354637  0.13348929534126583  0.9747824854726616  1.0000
  O   O5        1.0  0.24702103574734716  0.44213027139562905  0.3421055500144515  1.0000
  O   O6        1.0  0.7529789651288903  0.9421302713345108  0.1578944502080359  1.0000
  O   O7        1.0  0.75297896496984  0.5578697284821343  0.657894449745085  1.0000
  O   O8        1.0  0.2470210356046626  0.05786972854325264  0.8421055503294859  1.0000
