data_image0
_chemical_formula_structural       H100C112N12O16Cl16
_chemical_formula_sum              "H100 C112 N12 O16 Cl16"
_cell_length_a       14.069427800394633
_cell_length_b       24.12979636077836
_cell_length_c       8.04554708528476
_cell_angle_alpha    90.0
_cell_angle_beta     99.31510553520678
_cell_angle_gamma    90.0

_space_group_name_H-M_alt    "P 1"
_space_group_IT_number       1

loop_
  _space_group_symop_operation_xyz
  'x, y, z'

loop_
  _atom_site_type_symbol
  _atom_site_label
  _atom_site_symmetry_multiplicity
  _atom_site_fract_x
  _atom_site_fract_y
  _atom_site_fract_z
  _atom_site_occupancy
  H   H1        1.0  0.2593888438765553  0.666228137181073  0.49033690977282574  1.0000
  H   H2        1.0  0.7406111563746457  0.1662281371972016  0.009663091011999428  1.0000
  H   H3        1.0  0.7406111558122802  0.33377186278666987  0.509663090406755  1.0000
  H   H4        1.0  0.2593888440249506  0.8337718627705413  0.9903369091675787  1.0000
  H   H5        1.0  0.4514081174766075  0.576453132965906  0.2676016577581513  1.0000
  H   H6        1.0  0.548591882658008  0.0764531329820345  0.23239834176714094  1.0000
  H   H7        1.0  0.5485918820956426  0.4235468670018369  0.7323983411618964  1.0000
  H   H8        1.0  0.45140811774158823  0.9235468669857082  0.7676016584124371  1.0000
  H   H9        1.0  0.47763743282460974  0.7173999316520384  0.6630888163231051  1.0000
  H   H10       1.0  0.5223625670126211  0.217399931668167  0.8369111832512284  1.0000
  H   H11       1.0  0.5223625668642258  0.28260006831570444  0.3369111838564756  1.0000
  H   H12       1.0  0.477637432559629  0.7826000682995758  0.16308881566881928  1.0000
  H   H13       1.0  0.6517228042993409  0.7400024924795517  0.7220590291102132  1.0000
  H   H14       1.0  0.34827719553788966  0.2400024924956802  0.7779409704641203  1.0000
  H   H15       1.0  0.3482771953894944  0.2599975074881912  0.2779409710693674  1.0000
  H   H16       1.0  0.6517228040343602  0.7599975074720625  0.2220590284559275  1.0000
  H   H17       1.0  0.766378611429534  0.6866295778994115  0.5752180570781718  1.0000
  H   H18       1.0  0.23362138911845745  0.18662957791554005  0.9247819424961591  1.0000
  H   H19       1.0  0.23362138897006218  0.3133704220683314  0.42478194310140627  1.0000
  H   H20       1.0  0.7663786112811386  0.8133704220522028  0.0752180576834189  1.0000
  H   H21       1.0  0.7059009283763544  0.6133789953593529  0.37100405260155656  1.0000
  H   H22       1.0  0.294099071758261  0.11337899537548152  0.1289959469237357  1.0000
  H   H23       1.0  0.29409907119589557  0.38662100460838994  0.6289959463184912  1.0000
  H   H24       1.0  0.7059009286413351  0.8866210045922612  0.8710040532558423  1.0000
  H   H25       1.0  0.6503643485311322  0.43040504713422245  0.0653664151591037  1.0000
  H   H26       1.0  0.34963565160348314  0.9304050471180939  0.43463358436618854  1.0000
  H   H27       1.0  0.3496356518684639  0.5695949528335204  0.9346335850204742  1.0000
  H   H28       1.0  0.6503643479687669  0.06959495284964892  0.5653664145538593  1.0000
  H   H29       1.0  0.7070901294860842  0.48370232493845655  0.8357252614996377  1.0000
  H   H30       1.0  0.2929098704677321  0.983702324922328  0.6642747393342288  1.0000
  H   H31       1.0  0.2929098702027513  0.5162976750292864  0.1642747386799429  1.0000
  H   H32       1.0  0.7070901299318642  0.01629767504541487  0.3357252608453493  1.0000
  H   H33       1.0  0.6825858866109389  0.5867309308508111  0.8186295927410864  1.0000
  H   H34       1.0  0.31741411322629204  0.08673093045251429  0.6813704068332471  1.0000
  H   H35       1.0  0.3174141130778967  0.41326906953135717  0.1813704074384943  1.0000
  H   H36       1.0  0.6825858871733042  0.9132690695152286  0.31862959334633084  1.0000
  H   H37       1.0  0.0503615793277256  0.6178423624922418  0.44459055125506725  1.0000
  H   H38       1.0  0.9496384209234753  0.1178423625083704  0.05540944952975796  1.0000
  H   H39       1.0  0.9496384210718706  0.382157637475501  0.5554094489245107  1.0000
  H   H40       1.0  0.050361578765360175  0.8821576374593725  0.9445905506498228  1.0000
  H   H41       1.0  0.8123339593207732  0.6196266510687498  0.18076430613056496  1.0000
  H   H42       1.0  0.1876660409304278  0.11962665108487835  0.31923569465426027  1.0000
  H   H43       1.0  0.18766604036806236  0.38037334889899305  0.8192356940490158  1.0000
  H   H44       1.0  0.8123339594691684  0.8803733488828644  0.6807643055253177  1.0000
  H   H45       1.0  0.7653198797277839  0.6907646666713244  0.9646380791000306  1.0000
  H   H46       1.0  0.23468012022603227  0.19076466668745298  0.5353619217338358  1.0000
  H   H47       1.0  0.2346801199610515  0.3092353332964184  0.03536192107955005  1.0000
  H   H48       1.0  0.7653198801735639  0.8092353332802898  0.46463807844574223  1.0000
  H   H49       1.0  0.8849170071596832  0.7610453488886233  0.8986152604681488  1.0000
  H   H50       1.0  0.11508299279413303  0.26104534890475195  0.6013847403657177  1.0000
  H   H51       1.0  0.11508299252915226  0.23895465107911948  0.10138473971143187  1.0000
  H   H52       1.0  0.8849170076054632  0.738954651062991  0.39861525981386037  1.0000
  H   H53       1.0  0.05175718128211012  0.7586901818930006  0.06029817013430733  1.0000
  H   H54       1.0  0.9482428188525054  0.25869018190912935  0.4397018293909849  1.0000
  H   H55       1.0  0.9482428191174861  0.2413098180747421  0.9397018300452707  1.0000
  H   H56       1.0  0.05175718083633017  0.7413098180586136  0.5602981707885958  1.0000
  H   H57       1.0  0.8085164324548229  0.44751191301192045  0.2942852703864611  1.0000
  H   H58       1.0  0.1914835676797926  0.9475119129957918  0.20571472913883115  1.0000
  H   H59       1.0  0.19148356723401264  0.5524880869558224  0.7057147297931197  1.0000
  H   H60       1.0  0.8085164326032181  0.05248808697195095  0.7942852697812138  1.0000
  H   H61       1.0  0.7705354522088194  0.45156076897983916  0.5857700581771097  1.0000
  H   H62       1.0  0.22946454762841137  0.9515607689637104  0.9142299413972238  1.0000
  H   H63       1.0  0.2294645480741913  0.5484392309879037  0.41422994074293545  1.0000
  H   H64       1.0  0.7705354520604242  0.04843923100403226  0.08577005878235681  1.0000
  H   H65       1.0  0.834098542188003  0.5312325926146568  0.7736652234769668  1.0000
  H   H66       1.0  0.16590145764922787  0.03123259221636008  0.7263347760973667  1.0000
  H   H67       1.0  0.16590145821159333  0.4687674077675113  0.22633477670261123  1.0000
  H   H68       1.0  0.8340985420396076  0.9687674077513827  0.2736652240822139  1.0000
  H   H69       1.0  0.2322228842745777  0.7690497529503976  0.37059708668395275  1.0000
  H   H70       1.0  0.7677771158600376  0.26904975296652617  0.12940291284133948  1.0000
  H   H71       1.0  0.7677771154142577  0.23095024701734523  0.6294029134956279  1.0000
  H   H72       1.0  0.232222884422973  0.7309502470012167  0.8705970860787056  1.0000
  H   H73       1.0  0.23149013191331208  0.7910907425239558  0.5707411397194185  1.0000
  H   H74       1.0  0.7685098679239186  0.2910907425400845  0.929258859854915  1.0000
  H   H75       1.0  0.7685098677755234  0.20890925744378697  0.42925886046016215  1.0000
  H   H76       1.0  0.2314901317649168  0.7089092574276584  0.07074114032466569  1.0000
  H   H77       1.0  0.3936654067885733  0.7769191281063624  0.5060244026864603  1.0000
  H   H78       1.0  0.606334593165243  0.27691912812249103  0.9939755981474061  1.0000
  H   H79       1.0  0.6063345929002623  0.22308087186138037  0.49397559749312037  1.0000
  H   H80       1.0  0.3936654072343533  0.7230808722596772  0.0060244020321718675  1.0000
  H   H81       1.0  0.37396987010535554  0.8466253330345562  0.5673278960766711  1.0000
  H   H82       1.0  0.6260301297318753  0.34662533305068477  0.9326721034976624  1.0000
  H   H83       1.0  0.6260301295834799  0.15337466693318663  0.4326721041029095  1.0000
  H   H84       1.0  0.3739698699569603  0.653374666917058  0.06732789668191824  1.0000
  H   H85       1.0  0.3702939514252995  0.8293720846533679  0.34809081495835353  1.0000
  H   H86       1.0  0.6297060488259014  0.3293720842550712  0.15190918582647162  1.0000
  H   H87       1.0  0.6297060489742966  0.17062791572880023  0.6519091852212245  1.0000
  H   H88       1.0  0.37029395086293404  0.6706279157126716  0.8480908143531092  1.0000
  H   H89       1.0  0.19769684963634868  0.8607349933445538  0.26275341208887415  1.0000
  H   H90       1.0  0.8023031504982668  0.36073499336068243  0.23724658743641805  1.0000
  H   H91       1.0  0.8023031507632475  0.13926500703761438  0.7372465880907038  1.0000
  H   H92       1.0  0.1976968499013294  0.6392650070214858  0.76275341274316  1.0000
  H   H93       1.0  0.20234919334840806  0.8858395578813952  0.47525067749593564  1.0000
  H   H94       1.0  0.7976508069027928  0.3858395578975237  0.02474932328888952  1.0000
  H   H95       1.0  0.7976508063404275  0.11416044208634765  0.5247493226836452  1.0000
  H   H96       1.0  0.20234919349680336  0.614160442070219  0.9752506768906886  1.0000
  H   H97       1.0  0.1117850339270793  0.8377361171127571  0.3877739303576599  1.0000
  H   H98       1.0  0.8882149663241217  0.3377361171288857  0.11222607042716529  1.0000
  H   H99       1.0  0.888214966472517  0.1622638828549857  0.6122260698219181  1.0000
  H   H100      1.0  0.11178503336471388  0.6622638828388571  0.8877739297524154  1.0000
  C   C1        1.0  0.5563041874370686  0.625537297717713  0.39154785536955033  1.0000
  C   C2        1.0  0.44369581210337156  0.1255372977338416  0.10845214541527746  1.0000
  C   C3        1.0  0.4436958122517669  0.3744627022500298  0.6084521448100303  1.0000
  C   C4        1.0  0.5563041875854638  0.8744627022339013  0.8915478547643032  1.0000
  C   C5        1.0  0.49059084702018  0.6553609240442796  0.476480021122784  1.0000
  C   C6        1.0  0.5094091524036746  0.15536092406040816  0.02351997840251088  1.0000
  C   C7        1.0  0.5094091525520699  0.34463907592346327  0.5235199777972637  1.0000
  C   C8        1.0  0.49059084728516084  0.8446390759073347  0.9764800217770698  1.0000
  C   C9        1.0  0.5276779427314408  0.6958925358895298  0.5955318528514248  1.0000
  C   C10       1.0  0.4723220572223756  0.19589253590565842  0.9044681479824416  1.0000
  C   C11       1.0  0.47232205766815555  0.304107464078213  0.4044681473281533  1.0000
  C   C12       1.0  0.5276779424664598  0.8041074644765099  0.09553185219713897  1.0000
  C   C13       1.0  0.6251978721701218  0.7082276138798191  0.630043273418596  1.0000
  C   C14       1.0  0.37480212766710896  0.20822761389594768  0.8699567261557376  1.0000
  C   C15       1.0  0.37480212751871367  0.2917723860879237  0.3699567267609846  1.0000
  C   C16       1.0  0.6251978720217266  0.7917723860717951  0.13004327402384314  1.0000
  C   C17       1.0  0.6892558941661912  0.6783673933778688  0.5472708595703664  1.0000
  C   C18       1.0  0.31074410567103966  0.1783673933939974  0.9527291400039672  1.0000
  C   C19       1.0  0.3107441062334051  0.321632606589874  0.4527291406092117  1.0000
  C   C20       1.0  0.6892558940177959  0.8216326065737455  0.04727086017561344  1.0000
  C   C21       1.0  0.6556517594469513  0.6374695538252698  0.4316259808621106  1.0000
  C   C22       1.0  0.34434823997690345  0.13746955384139842  0.06837401866318425  1.0000
  C   C23       1.0  0.34434824012529874  0.36253044614247304  0.5683740180579371  1.0000
  C   C24       1.0  0.655651759711932  0.8625304461263443  0.9316259815163964  1.0000
  C   C25       1.0  0.3862053745851765  0.6441476176427468  0.4405429765670902  1.0000
  C   C26       1.0  0.6137946256660244  0.14414761765887532  0.05945702421773492  1.0000
  C   C27       1.0  0.6137946251036589  0.35585238232499605  0.5594570236124904  1.0000
  C   C28       1.0  0.3862053747335718  0.8558523823088675  0.9405429759618431  1.0000
  C   C29       1.0  0.5775551636596448  0.5594585995737156  0.16641673586685202  1.0000
  C   C30       1.0  0.4224448364749707  0.059458599589844195  0.3335832636584402  1.0000
  C   C31       1.0  0.4224448367399514  0.4405414003940272  0.833583264312726  1.0000
  C   C32       1.0  0.5775551639246255  0.9405414003778986  0.6664167365211379  1.0000
  C   C33       1.0  0.5945174980999559  0.5020039994904151  0.174435058826132  1.0000
  C   C34       1.0  0.4054825021512451  0.0020039995065437083  0.3255649419586932  1.0000
  C   C35       1.0  0.40548250158887966  0.4979960004773277  0.8255649413534486  1.0000
  C   C36       1.0  0.5945174982483511  0.9979960004611992  0.6744350582208849  1.0000
  C   C37       1.0  0.6402461215713097  0.47498909392496375  0.056066856917646006  1.0000
  C   C38       1.0  0.3597538785633057  0.9749890939088351  0.4439331426076462  1.0000
  C   C39       1.0  0.35975387871170095  0.5250109060427791  0.9439331420023991  1.0000
  C   C40       1.0  0.6402461211255298  0.02501090605890768  0.5560668575719344  1.0000
  C   C41       1.0  0.6725219553379485  0.5052746889243418  0.9288380540271073  1.0000
  C   C42       1.0  0.32747804532662855  0.005274688940470378  0.5711619468067566  1.0000
  C   C43       1.0  0.3274780450616478  0.49472531104340106  0.07116194615247078  1.0000
  C   C44       1.0  0.6725219550729677  0.9947253110272725  0.42883805337282144  1.0000
  C   C45       1.0  0.6591678977001768  0.562526350701542  0.9188489346771018  1.0000
  C   C46       1.0  0.34083210213705395  0.06252635071767063  0.5811510648972317  1.0000
  C   C47       1.0  0.3408321025828339  0.43747364926620075  0.0811510642429433  1.0000
  C   C48       1.0  0.6591678975517815  0.9374736492500723  0.41884893528234896  1.0000
  C   C49       1.0  0.6114796724741989  0.5888053673380316  0.035912922201422504  1.0000
  C   C50       1.0  0.3885203276604165  0.0888053673541602  0.4640870773238697  1.0000
  C   C51       1.0  0.38852032721463653  0.4111946326297112  0.9640870779781582  1.0000
  C   C52       1.0  0.6114796726225942  0.9111946326135826  0.5359129215961754  1.0000
  C   C53       1.0  0.028077173962353156  0.6875003233332251  0.20767105992691529  1.0000
  C   C54       1.0  0.9719228261722623  0.18750032334935368  0.29232893959837697  1.0000
  C   C55       1.0  0.971922826437243  0.3124996770489431  0.7923289402526628  1.0000
  C   C56       1.0  0.028077174227333926  0.8124996770328146  0.7076710605812011  1.0000
  C   C57       1.0  0.9597493348618563  0.6474245524671337  0.24448321214463878  1.0000
  C   C58       1.0  0.04025066527275921  0.14742455248326228  0.2555167873806534  1.0000
  C   C59       1.0  0.04025066553773998  0.35257544750060915  0.7555167880349393  1.0000
  C   C60       1.0  0.9597493350102515  0.8525754474844806  0.7444832115393917  1.0000
  C   C61       1.0  0.8652964106798713  0.6497235030745316  0.1532724164565006  1.0000
  C   C62       1.0  0.1347035895713296  0.1497235030906602  0.34672758432832457  1.0000
  C   C63       1.0  0.1347035890089642  0.3502764968932112  0.8467275837230801  1.0000
  C   C64       1.0  0.8652964108282666  0.8502764968770826  0.6532724158512534  1.0000
  C   C65       1.0  0.8391821267006669  0.6899470974011558  0.031219552192656395  1.0000
  C   C66       1.0  0.16081787355053392  0.18994709741728436  0.4687804485921688  1.0000
  C   C67       1.0  0.16081787369892925  0.3100529025665871  0.9687804479869216  1.0000
  C   C68       1.0  0.8391821268490622  0.8100529025504585  0.5312195515874093  1.0000
  C   C69       1.0  0.9058265325469187  0.7294524316255865  0.9943786600626205  1.0000
  C   C70       1.0  0.09417346729031209  0.22945243164171503  0.505621339511713  1.0000
  C   C71       1.0  0.09417346785267751  0.27054756875658176  0.005621340116957469  1.0000
  C   C72       1.0  0.9058265323985233  0.7705475687404533  0.4943786606678677  1.0000
  C   C73       1.0  0.9989638655761699  0.7277536763030331  0.08305800636019627  1.0000
  C   C74       1.0  0.0010361338476847601  0.22775367631916169  0.4169419931650986  1.0000
  C   C75       1.0  0.001036134112665514  0.2722463236647097  0.9169419938193843  1.0000
  C   C76       1.0  0.9989638658411507  0.7722463236485811  0.5830580070144821  1.0000
  C   C77       1.0  0.1280305347352211  0.6901527286433682  0.29948877790620887  1.0000
  C   C78       1.0  0.8719694655159799  0.19015272865949678  0.20051122287861625  1.0000
  C   C79       1.0  0.8719694656643752  0.3098472713243746  0.7005112222733691  1.0000
  C   C80       1.0  0.12803053488361638  0.8098472713082461  0.7994887773009618  1.0000
  C   C81       1.0  0.9267651449213041  0.5679970504134787  0.42096580497231256  1.0000
  C   C82       1.0  0.07323485521331126  0.06799705042960727  0.07903419455297962  1.0000
  C   C83       1.0  0.0732348547675313  0.43200294996868954  0.579034195207268  1.0000
  C   C84       1.0  0.9267651451862848  0.9320029499525609  0.9209658056265985  1.0000
  C   C85       1.0  0.8912227707749953  0.5224697300177851  0.3193752814418278  1.0000
  C   C86       1.0  0.10877722947620559  0.022469730033913577  0.18062471934299734  1.0000
  C   C87       1.0  0.10877722891384016  0.47753026994995784  0.6806247187377529  1.0000
  C   C88       1.0  0.8912227709233906  0.9775302699338293  0.8193752808365807  1.0000
  C   C89       1.0  0.8348382759386511  0.48151272709809184  0.37753156238747365  1.0000
  C   C90       1.0  0.16516172431254983  0.9815127270819634  0.12246843839735155  1.0000
  C   C91       1.0  0.1651617237501844  0.518487272869651  0.622468437792107  1.0000
  C   C92       1.0  0.8348382760870464  0.018487272885779556  0.8775315617822266  1.0000
  C   C93       1.0  0.813854636471326  0.48408267957812184  0.5407954354222408  1.0000
  C   C94       1.0  0.18614536407666535  0.9840826795619932  0.95920456415209  1.0000
  C   C95       1.0  0.18614536392827002  0.515917320389621  0.4592045647573371  1.0000
  C   C96       1.0  0.8138546363229309  0.01591732040574961  0.04079543602748802  1.0000
  C   C97       1.0  0.8487858916929161  0.5280147216952732  0.6453753880582944  1.0000
  C   C98       1.0  0.15121410826090026  0.02801472171140173  0.854624612775572  1.0000
  C   C99       1.0  0.15121410870668023  0.47198527827246967  0.3546246121212836  1.0000
  C   C100      1.0  0.8487858914279353  0.9719852782563412  0.14537538740400857  1.0000
  C   C101      1.0  0.903376265059187  0.5693244387395593  0.5849579919282811  1.0000
  C   C102      1.0  0.09662373477804383  0.06932443875568789  0.9150420076460524  1.0000
  C   C103      1.0  0.09662373462964856  0.4306755612281835  0.41504200825129955  1.0000
  C   C104      1.0  0.9033762647942063  0.930675561212055  0.08495799127399534  1.0000
  C   C105      1.0  0.35406849949511326  0.8151796010169685  0.46981123113605583  1.0000
  C   C106      1.0  0.6459314999287414  0.31517960103309706  0.030188768389239045  1.0000
  C   C107      1.0  0.6459315001937221  0.18482039895077437  0.5301887690435249  1.0000
  C   C108      1.0  0.354068499760094  0.6848203989346457  0.9698112317903416  1.0000
  C   C109      1.0  0.186679158449738  0.8502435608345186  0.3906384123331101  1.0000
  C   C110      1.0  0.8133208409741167  0.3502435608506472  0.10936158719218479  1.0000
  C   C111      1.0  0.8133208412390974  0.1497564395476496  0.6093615878464705  1.0000
  C   C112      1.0  0.18667915871471877  0.649756439531521  0.8906384129873959  1.0000
  N   N1        1.0  0.5236194796274715  0.5851631961118022  0.27653277771688795  1.0000
  N   N2        1.0  0.4763805205071439  0.08516319612793087  0.22346722180840434  1.0000
  N   N3        1.0  0.4763805207721246  0.4148368038559405  0.7234672224626901  1.0000
  N   N4        1.0  0.5236194791816915  0.914836803839812  0.7765327783711763  1.0000
  N   N5        1.0  0.9862819267275028  0.6086219133565152  0.3686117429999312  1.0000
  N   N6        1.0  0.013718073407112608  0.1086219133726437  0.13138825652536104  1.0000
  N   N7        1.0  0.013718072961332652  0.3913780866112277  0.6313882571796494  1.0000
  N   N8        1.0  0.9862819268758981  0.8913780865950992  0.8686117423946841  1.0000
  N   N9        1.0  0.24992065680049974  0.8031943477775304  0.45359287308291446  1.0000
  N   N10       1.0  0.7500793427399405  0.30319434779365895  0.04640712770191334  1.0000
  N   N11       1.0  0.7500793428883358  0.19680565219021245  0.5464071270966663  1.0000
  N   N12       1.0  0.249920656948895  0.6968056521740839  0.9535928724776673  1.0000
  O   O1        1.0  0.3332417821328871  0.6724096999166148  0.5348809853496184  1.0000
  O   O2        1.0  0.6667582178209291  0.17240969993274335  0.965119015484248  1.0000
  O   O3        1.0  0.6667582182667091  0.32759030005112805  0.4651190148299596  1.0000
  O   O4        1.0  0.3332417818679064  0.8275903000349994  0.034880984695332594  1.0000
  O   O5        1.0  0.3485769855248784  0.6108490444601722  0.32980347247359626  1.0000
  O   O6        1.0  0.651423014609737  0.11084904447630074  0.17019652705169597  1.0000
  O   O7        1.0  0.6514230141639571  0.3891509555075707  0.6701965277059844  1.0000
  O   O8        1.0  0.3485769857898592  0.8891509554914421  0.829803473127882  1.0000
  O   O9        1.0  0.1884291222727717  0.7219998312260114  0.24156344775573305  1.0000
  O   O10       1.0  0.8115708771510831  0.22199983124214004  0.2584365517695618  1.0000
  O   O11       1.0  0.8115708772994783  0.2780001687417314  0.7584365511643147  1.0000
  O   O12       1.0  0.18842912253775249  0.7780001687256028  0.7415634484100189  1.0000
  O   O13       1.0  0.1524107098591966  0.662380063264008  0.43590315395207474  1.0000
  O   O14       1.0  0.8475892896812435  0.1623800632801366  0.06409684683275305  1.0000
  O   O15       1.0  0.8475892898296388  0.33761993670373486  0.564096846227506  1.0000
  O   O16       1.0  0.15241071000759196  0.8376199366876063  0.9359031533468277  1.0000
  Cl  Cl1       1.0  0.5575815622472814  0.4645186649075574  0.3344359670352331  1.0000
  Cl  Cl2       1.0  0.44241843788733404  0.9645186648914288  0.16556403249005924  1.0000
  Cl  Cl3       1.0  0.44241843744155407  0.5354813350601855  0.6655640331443476  1.0000
  Cl  Cl4       1.0  0.5575815625122621  0.03548133507631404  0.8344359676895188  1.0000
  Cl  Cl5       1.0  0.589779512365355  0.6590996626001772  0.018668079036658524  1.0000
  Cl  Cl6       1.0  0.4102204877692604  0.1590996626163058  0.4813319204886337  1.0000
  Cl  Cl7       1.0  0.41022048791765564  0.34090033736756564  0.9813319198833865  1.0000
  Cl  Cl8       1.0  0.5897795126303359  0.840900337351437  0.5186680796909443  1.0000
  Cl  Cl9       1.0  0.9209579905716537  0.5158973484017603  0.1202847495591102  1.0000
  Cl  Cl10      1.0  0.07904200885220088  0.01589734841788885  0.3797152499661846  1.0000
  Cl  Cl11      1.0  0.07904200911718166  0.48410265156598253  0.8797152506204704  1.0000
  Cl  Cl12      1.0  0.9209579907200491  0.984102651549854  0.6202847489538631  1.0000
  Cl  Cl13      1.0  0.9422396450644152  0.6245619189930812  0.7151337297338333  1.0000
  Cl  Cl14      1.0  0.05776035548357637  0.12456191900920983  0.7848662698404977  1.0000
  Cl  Cl15      1.0  0.05776035521859562  0.3754380809746616  0.28486626918621194  1.0000
  Cl  Cl16      1.0  0.9422396449160199  0.875438080958533  0.21513373033908031  1.0000
