data_image0
_chemical_formula_structural       H60C56N24O16I4
_chemical_formula_sum              "H60 C56 N24 O16 I4"
_cell_length_a       7.95245476258875
_cell_length_b       13.65685472652814
_cell_length_c       14.744336337830214
_cell_angle_alpha    90.0
_cell_angle_beta     98.79496908135782
_cell_angle_gamma    90.0

_space_group_name_H-M_alt    "P 1"
_space_group_IT_number       1

loop_
  _space_group_symop_operation_xyz
  'x, y, z'

loop_
  _atom_site_type_symbol
  _atom_site_label
  _atom_site_symmetry_multiplicity
  _atom_site_fract_x
  _atom_site_fract_y
  _atom_site_fract_z
  _atom_site_occupancy
  H   H1        1.0  0.519390947661826  0.8504833676994644  0.2931163167234089  1.0000
  H   H2        1.0  0.980609051979634  0.35048336793847035  0.20688368365745424  1.0000
  H   H3        1.0  0.4806090528634034  0.14951663182252364  0.7068836836477783  1.0000
  H   H4        1.0  0.019390947285853773  0.6495166323157507  0.7931163167054046  1.0000
  H   H5        1.0  0.5367571195495033  0.9306759180289806  0.39104906089325314  1.0000
  H   H6        1.0  0.9632428813516986  0.4306759182679866  0.10895093949593829  1.0000
  H   H7        1.0  0.46324288097572613  0.0693240814930074  0.608950939477934  1.0000
  H   H8        1.0  0.03675711917353102  0.5693240819862344  0.8910490608752489  1.0000
  H   H9        1.0  0.3472955428566599  0.929983306136315  0.30742289827511543  1.0000
  H   H10       1.0  0.15270445659680384  0.429983306375321  0.19257710122006838  1.0000
  H   H11       1.0  0.6527044574892895  0.07001669411790604  0.6925771014098262  1.0000
  H   H12       1.0  0.8472955424894039  0.5700166938789001  0.8074228984565449  1.0000
  H   H13       1.0  0.2307139920908237  0.5850234911322895  0.6588456579888271  1.0000
  H   H14       1.0  0.26928600805843356  0.08502349137129539  0.8411543423643558  1.0000
  H   H15       1.0  0.7692860084344059  0.41497650838969863  0.3411543423823601  1.0000
  H   H16       1.0  0.7307139912070543  0.9149765088829257  0.158845657998503  1.0000
  H   H17       1.0  0.16770215365980956  0.5542015142987546  0.5407260437197661  1.0000
  H   H18       1.0  0.33229784631016757  0.05420151380552762  0.9592739559471714  1.0000
  H   H19       1.0  0.8322978454263982  0.4457984859554664  0.4592739559568472  1.0000
  H   H20       1.0  0.6677021540357818  0.9457984857164604  0.040726043737770314  1.0000
  H   H21       1.0  0.012965449675392093  0.597293751258473  0.6078109595594345  1.0000
  H   H22       1.0  0.48703455029458503  0.09729375149747897  0.8921890401075029  1.0000
  H   H23       1.0  0.9870345506705573  0.40270624826351503  0.39218904012550715  1.0000
  H   H24       1.0  0.5129654500513644  0.9027062487567421  0.10781095957743875  1.0000
  H   H25       1.0  0.14653312975546126  0.02400738212167761  0.6195217277493466  1.0000
  H   H26       1.0  0.35346687021451584  0.5240073826149046  0.8804782719175908  1.0000
  H   H27       1.0  0.8534668705904882  0.9759926174003104  0.38047827193559497  1.0000
  H   H28       1.0  0.6465331288716919  0.47599261763931644  0.11952172775902258  1.0000
  H   H29       1.0  0.16768794988148358  0.9443905766198915  0.7183105220803319  1.0000
  H   H30       1.0  0.33231205008849357  0.4443905768588974  0.7816894775866056  1.0000
  H   H31       1.0  0.8323120492047241  0.05560942290209659  0.28168947759628155  1.0000
  H   H32       1.0  0.667687950257456  0.5556094233953237  0.21831052209833607  1.0000
  H   H33       1.0  0.9693222662708356  0.9534144457660291  0.6439790332245504  1.0000
  H   H34       1.0  0.5306777337078578  0.45341444527280195  0.8560209666418207  1.0000
  H   H35       1.0  0.030677732815372206  0.046585554488192064  0.3560209664520629  1.0000
  H   H36       1.0  0.46932226681737177  0.5465855542491861  0.14397903372936657  1.0000
  H   H37       1.0  0.015212698306678438  0.12107736686896454  0.7240505531251177  1.0000
  H   H38       1.0  0.4847873016632987  0.6210773666299586  0.7759494465418196  1.0000
  H   H39       1.0  0.9847873020392711  0.8789226333852564  0.27594944655982384  1.0000
  H   H40       1.0  0.5152126986826508  0.3789226336242625  0.22405055314312203  1.0000
  H   H41       1.0  0.8556981822810371  0.42855083598651333  0.8692959396725772  1.0000
  H   H42       1.0  0.6443018176976564  0.9285508364797402  0.6307040601937937  1.0000
  H   H43       1.0  0.1443018168051707  0.5714491635354747  0.13070406000403595  1.0000
  H   H44       1.0  0.3556981828275732  0.0714491637744807  0.3692959401773935  1.0000
  H   H45       1.0  0.9997711535051804  0.4355225627791439  0.7294292498375914  1.0000
  H   H46       1.0  0.5002288466527931  0.9355225625401379  0.7705707507150251  1.0000
  H   H47       1.0  0.00022884576030747787  0.5644774374750772  0.2705707505252674  1.0000
  H   H48       1.0  0.4997711538724364  0.06447743771408314  0.22942924965616204  1.0000
  H   H49       1.0  0.756385831105212  0.2077802485873981  0.9846143117146846  1.0000
  H   H50       1.0  0.7436141688734815  0.7077802483483921  0.5153856881516864  1.0000
  H   H51       1.0  0.24361416924073756  0.792219751666823  0.015385687970256981  1.0000
  H   H52       1.0  0.25638583147246796  0.29221975190582894  0.4846143115332552  1.0000
  H   H53       1.0  0.7540000360984855  0.33438865034782067  0.9821195343057485  1.0000
  H   H54       1.0  0.7459999638802078  0.8343886501088146  0.5178804655606225  1.0000
  H   H55       1.0  0.24599996442674404  0.6656113499064004  0.017880466065438638  1.0000
  H   H56       1.0  0.2540000364657416  0.1656113501454064  0.4821195341243191  1.0000
  H   H57       1.0  0.45643163743940235  0.6821673047384307  0.3245026693778361  1.0000
  H   H58       1.0  0.04356836219334161  0.18216730497743674  0.17549733080359328  1.0000
  H   H59       1.0  0.5435683618260855  0.3178326947835573  0.6754973309850227  1.0000
  H   H60       1.0  0.9564316381526079  0.8178326952767844  0.8245026688813483  1.0000
  C   C1        1.0  0.2921465632291229  0.8182018813083386  0.4681428558540024  1.0000
  C   C2        1.0  0.20785343622434094  0.3182018815473446  0.031857143641181446  1.0000
  C   C3        1.0  0.7078534358570848  0.18179811821364947  0.531857143822611  1.0000
  C   C4        1.0  0.7921465641216084  0.6817981187068765  0.9681428560437602  1.0000
  C   C5        1.0  0.8545229434491327  0.2710796610297656  0.8759493734286616  1.0000
  C   C6        1.0  0.6454770565295606  0.7710796607907596  0.6240506264377093  1.0000
  C   C7        1.0  0.14547705563707508  0.7289203392244554  0.12405062624795163  1.0000
  C   C8        1.0  0.3545229439956688  0.22892033873122844  0.37594937393347777  1.0000
  C   C9        1.0  0.1317978564315445  0.7809535858416033  0.61978780168526  1.0000
  C   C10       1.0  0.3682021437177127  0.2809535853483763  0.8802121986679229  1.0000
  C   C11       1.0  0.8682021440936851  0.2190464144126177  0.3802121986859272  1.0000
  C   C12       1.0  0.6317978568075168  0.7190464141736117  0.11978780170326427  1.0000
  C   C13       1.0  0.2418778940345632  0.9024718053168641  0.5142938006199477  1.0000
  C   C14       1.0  0.25812210485495235  0.4024718055558702  0.9857061997249069  1.0000
  C   C15       1.0  0.7581221052309246  0.09752819493735687  0.4857061997429112  1.0000
  C   C16       1.0  0.7418778944105355  0.597528194698351  0.014293800637951918  1.0000
  C   C17       1.0  0.4506665605746145  0.8850874891800873  0.34347717439568154  1.0000
  C   C18       1.0  0.04933344031787109  0.3850874894190934  0.15652282579407623  1.0000
  C   C19       1.0  0.549333439771335  0.11491251034190067  0.6565228252892601  1.0000
  C   C20       1.0  0.9506665602073586  0.6149125108351278  0.843477174577111  1.0000
  C   C21       1.0  0.39275283599500627  0.7106259072338534  0.37915832051036436  1.0000
  C   C22       1.0  0.10724716345845756  0.2106259074728595  0.12084167898481946  1.0000
  C   C23       1.0  0.6072471630912014  0.2893740922881345  0.6208416791662489  1.0000
  C   C24       1.0  0.8927528368874919  0.7893740927813616  0.8791583207001221  1.0000
  C   C25       1.0  0.25834085662049994  0.722862855883192  0.4936965558163216  1.0000
  C   C26       1.0  0.24165914301224392  0.22286285538996495  0.006303444365107807  1.0000
  C   C27       1.0  0.7416591439047295  0.2771371443710291  0.5063034445548656  1.0000
  C   C28       1.0  0.7583408560739638  0.7771371441320231  0.9936965553115055  1.0000
  C   C29       1.0  0.14495508180960848  0.6038539550384817  0.5956274046697221  1.0000
  C   C30       1.0  0.35504491833964874  0.10385395454525467  0.904372595683461  1.0000
  C   C31       1.0  0.8550449187156212  0.3961460452157394  0.4043725957014652  1.0000
  C   C32       1.0  0.6449550809258392  0.8961460449767333  0.0956274046793979  1.0000
  C   C33       1.0  0.10786821596059121  0.9546115347244583  0.6468050882302492  1.0000
  C   C34       1.0  0.39213178418866595  0.4546115342312313  0.8531949121229336  1.0000
  C   C35       1.0  0.8921317845646384  0.04538846552976276  0.35319491214093807  1.0000
  C   C36       1.0  0.6078682163365636  0.5453884652907568  0.14680508824825345  1.0000
  C   C37       1.0  0.8988842488317267  0.1831252085549412  0.8330924983319083  1.0000
  C   C38       1.0  0.6011157511469668  0.6831252083159352  0.6669075015344627  1.0000
  C   C39       1.0  0.10111575025448113  0.8168747916992799  0.1669075013447049  1.0000
  C   C40       1.0  0.39888424937826283  0.3168747919382858  0.33309249883672454  1.0000
  C   C41       1.0  0.9796512502051985  0.18749237297122126  0.7568594508199401  1.0000
  C   C42       1.0  0.5203487497734948  0.6874923727322153  0.7431405490464309  1.0000
  C   C43       1.0  0.02034874888100918  0.8125076272829997  0.24314054885667316  1.0000
  C   C44       1.0  0.47965125057245467  0.3125076275220057  0.2568594506385107  1.0000
  C   C45       1.0  0.01862741814217848  0.27826531482524586  0.7205368160126341  1.0000
  C   C46       1.0  0.4813725818277987  0.7782653145862398  0.7794631836543033  1.0000
  C   C47       1.0  0.9813725809440293  0.7217346854289751  0.2794631836639792  1.0000
  C   C48       1.0  0.5186274185181508  0.22173468493574816  0.22053681603063832  1.0000
  C   C49       1.0  0.8910905953029197  0.36204127516972984  0.8359518776503407  1.0000
  C   C50       1.0  0.6089094046757737  0.8620412756629569  0.6640481222160303  1.0000
  C   C51       1.0  0.10890940504302986  0.6379587243522582  0.16404812203460092  1.0000
  C   C52       1.0  0.3910905956701757  0.13795872459126418  0.33595187746891125  1.0000
  C   C53       1.0  0.9721161507048742  0.3659831008007392  0.759938809977817  1.0000
  C   C54       1.0  0.527883849273819  0.8659831005617332  0.7400611898885541  1.0000
  C   C55       1.0  0.02788384964107509  0.6340168994534818  0.24006118970712453  1.0000
  C   C56       1.0  0.47211614999166884  0.13401689969248784  0.2599388104743049  1.0000
  N   N1        1.0  0.7820894296412411  0.2706937669051277  0.9522600094758848  1.0000
  N   N2        1.0  0.7179105703374523  0.7706937673983548  0.5477399903904862  1.0000
  N   N3        1.0  0.2179105708839885  0.7293062326168603  0.04773999089530233  1.0000
  N   N4        1.0  0.2820894300084971  0.22930623285586632  0.4522600092944554  1.0000
  N   N5        1.0  0.16062125611319367  0.8762450234426854  0.5898719474221336  1.0000
  N   N6        1.0  0.33937874403606355  0.3762450229494585  0.9101280529310493  1.0000
  N   N7        1.0  0.839378744412036  0.12375497681153558  0.4101280529490535  1.0000
  N   N8        1.0  0.660621256489166  0.6237549765725297  0.08987194744013785  1.0000
  N   N9        1.0  0.3799701548971645  0.8078527589935601  0.39412825248468175  1.0000
  N   N10       1.0  0.12002984473557939  0.3078527592325661  0.10587174769674768  1.0000
  N   N11       1.0  0.620029845628065  0.1921472412606609  0.6058717478865054  1.0000
  N   N12       1.0  0.8799701543506284  0.692147241021655  0.8941282519798656  1.0000
  N   N13       1.0  0.3193871908097108  0.6563871974553019  0.4382712650708213  1.0000
  N   N14       1.0  0.18061280864375304  0.1563871969620749  0.061728734424362525  1.0000
  N   N15       1.0  0.6806128095362387  0.3436128027989191  0.5617287346141203  1.0000
  N   N16       1.0  0.8193871904424547  0.8436128025599132  0.9382712652522507  1.0000
  N   N17       1.0  0.1764925774759453  0.7037694741916163  0.5672017760540157  1.0000
  N   N18       1.0  0.3235074224940318  0.20376947443062238  0.9327982236129215  1.0000
  N   N19       1.0  0.8235074216102624  0.2962305260626047  0.4327982236225975  1.0000
  N   N20       1.0  0.6764925778519177  0.7962305258235987  0.06720177607201999  1.0000
  N   N21       1.0  0.10645315243581852  0.2788989673150238  0.643569550962872  1.0000
  N   N22       1.0  0.3935468462744169  0.7788989678082509  0.8564304486957369  1.0000
  N   N23       1.0  0.8935468466503892  0.7211010322069642  0.35643044871374124  1.0000
  N   N24       1.0  0.6064531528117909  0.22110103244597024  0.1435695509808763  1.0000
  O   O1        1.0  0.06856960297600184  0.7668188290571564  0.6903397396235591  1.0000
  O   O2        1.0  0.43143039699397523  0.26681882856392936  0.8096602600433781  1.0000
  O   O3        1.0  0.9314303973699476  0.23318117119706466  0.3096602600613824  1.0000
  O   O4        1.0  0.5685696033519743  0.7331811709580587  0.19033973964156348  1.0000
  O   O5        1.0  0.26458254031904654  0.9896228627040417  0.49422822915918857  1.0000
  O   O6        1.0  0.2354174591344173  0.48962286221081464  0.0057717703359952835  1.0000
  O   O7        1.0  0.7354174600269029  0.010377137550179388  0.5057717705257531  1.0000
  O   O8        1.0  0.7645825399517905  0.5103771373111734  0.994228229340618  1.0000
  O   O9        1.0  0.145406838270507  0.3590470798869339  0.6102319901000083  1.0000
  O   O10       1.0  0.3545931618787503  0.859047080380161  0.8897680102531748  1.0000
  O   O11       1.0  0.8545931622547226  0.6409529196350541  0.38976801027117897  1.0000
  O   O12       1.0  0.6454068386464794  0.1409529198740601  0.11023199011801249  1.0000
  O   O13       1.0  0.14243461958871992  0.19792110219562645  0.6108757856510285  1.0000
  O   O14       1.0  0.35756538038125724  0.6979211026888534  0.8891242140159089  1.0000
  O   O15       1.0  0.8575653807572295  0.8020788973263616  0.38912421403391323  1.0000
  O   O16       1.0  0.6424346199646922  0.3020788975653676  0.11087578566903265  1.0000
  I   I1        1.0  0.8518336745239772  0.044330186717443994  0.8867615193781316  1.0000
  I   I2        1.0  0.6481663254547162  0.544330186478438  0.6132384804882395  1.0000
  I   I3        1.0  0.14816632600125249  0.955669813536777  0.11323848099305568  1.0000
  I   I4        1.0  0.35183367363149143  0.45566981304355003  0.38676151918837376  1.0000
