data_image0
_chemical_formula_structural       H56C60N20O24F4
_chemical_formula_sum              "H56 C60 N20 O24 F4"
_cell_length_a       12.694514787188732
_cell_length_b       7.741660881271147
_cell_length_c       16.249454342420236
_cell_angle_alpha    90.0
_cell_angle_beta     93.78390134289604
_cell_angle_gamma    90.0

_space_group_name_H-M_alt    "P 1"
_space_group_IT_number       1

loop_
  _space_group_symop_operation_xyz
  'x, y, z'

loop_
  _atom_site_type_symbol
  _atom_site_label
  _atom_site_symmetry_multiplicity
  _atom_site_fract_x
  _atom_site_fract_y
  _atom_site_fract_z
  _atom_site_occupancy
  H   H1        1.0  0.14014235494030564  0.08220325970872384  0.2091060269949369  1.0000
  H   H2        1.0  0.8598576443731684  0.582203259626626  0.2908939732857846  1.0000
  H   H3        1.0  0.8598576444635967  0.9177967401270806  0.7908939729833766  1.0000
  H   H4        1.0  0.14014235503073405  0.41779674020917834  0.7091060266925291  1.0000
  H   H5        1.0  0.9570579712457664  0.300696067123231  0.9492115810477957  1.0000
  H   H6        1.0  0.04294202903934388  0.8006960670411332  0.5507884192832565  1.0000
  H   H7        1.0  0.04294202894759781  0.6993039327125734  0.050788418970192095  1.0000
  H   H8        1.0  0.9570579711540201  0.19930393279467126  0.44921158073473133  1.0000
  H   H9        1.0  0.8714414317759809  0.3325714287264483  0.08266734408267108  1.0000
  H   H10       1.0  0.1285585683269549  0.8325714286443505  0.41733265623772475  1.0000
  H   H11       1.0  0.12855856762792164  0.6674285724010686  0.9173326558956424  1.0000
  H   H12       1.0  0.8714414318664092  0.1674285724831664  0.5826673437802631  1.0000
  H   H13       1.0  0.3519378311726853  0.8927465186081863  0.01959448010554852  1.0000
  H   H14       1.0  0.6480621689302504  0.3927465186902841  0.48040552021484734  1.0000
  H   H15       1.0  0.6480621690206789  0.10725348122761806  0.9804055199124394  1.0000
  H   H16       1.0  0.35193783126311373  0.6072534811455202  0.5195944798031407  1.0000
  H   H17       1.0  0.26555081552182086  0.29550675301917484  0.32095608978034007  1.0000
  H   H18       1.0  0.7344491845797971  0.7955067529370771  0.17904390992458338  1.0000
  H   H19       1.0  0.7344491846715433  0.7044932468166295  0.6790439102376478  1.0000
  H   H20       1.0  0.26555081561356697  0.2044932468987274  0.8209560900934045  1.0000
  H   H21       1.0  0.2600847723749703  0.07481238959990488  0.35083525376489405  1.0000
  H   H22       1.0  0.7399152277279654  0.5748123895178071  0.14916474655550171  1.0000
  H   H23       1.0  0.7399152278183937  0.9251876102358995  0.6491647462530938  1.0000
  H   H24       1.0  0.26008477246539874  0.4251876103179973  0.8508352534624862  1.0000
  H   H25       1.0  0.3516212054164655  0.14154900438109483  0.2774823486715862  1.0000
  H   H26       1.0  0.6483787946851526  0.6415490055907096  0.22251765103333732  1.0000
  H   H27       1.0  0.6483787947768986  0.8584509954547095  0.7225176513464018  1.0000
  H   H28       1.0  0.3516212055082116  0.35845099553680737  0.7774823489846505  1.0000
  H   H29       1.0  0.6649755665254855  0.2367453170719436  0.6043194365152241  1.0000
  H   H30       1.0  0.3350244337596247  0.7367453169898458  0.8956805638158282  1.0000
  H   H31       1.0  0.33502443366787865  0.7632546827638608  0.3956805635027638  1.0000
  H   H32       1.0  0.6649755664337393  0.2632546828459586  0.10431943620215962  1.0000
  H   H33       1.0  0.6183882013841369  0.1723224926097451  0.7013015569504317  1.0000
  H   H34       1.0  0.3816117988996557  0.6723224925276473  0.7986984427651481  1.0000
  H   H35       1.0  0.3816117988092272  0.8276775072260593  0.29869844306755616  1.0000
  H   H36       1.0  0.6183882012937084  0.3276775073081571  0.20130155725283966  1.0000
  H   H37       1.0  0.5942080531522611  0.3859242307071236  0.665291161090052  1.0000
  H   H38       1.0  0.40579194713284905  0.8859242306250258  0.8347088392410003  1.0000
  H   H39       1.0  0.40579194704110294  0.6140757691286808  0.33470883892793585  1.0000
  H   H40       1.0  0.594208053060515  0.11407576921077857  0.1652911607769876  1.0000
  H   H41       1.0  0.29301754221795173  0.8064425458242098  0.663581845713823  1.0000
  H   H42       1.0  0.7069824580671585  0.3064425459063077  0.8364181546172293  1.0000
  H   H43       1.0  0.7069824579754125  0.19355745530330698  0.3364181543041649  1.0000
  H   H44       1.0  0.2930175421262056  0.6935574552212092  0.16358184540075857  1.0000
  H   H45       1.0  0.18844424175135843  0.9441972067884982  0.6251114282482627  1.0000
  H   H46       1.0  0.8115557585337517  0.444197206870596  0.8748885720827896  1.0000
  H   H47       1.0  0.8115557584420057  0.05580279304730621  0.3748885717697252  1.0000
  H   H48       1.0  0.18844424165961238  0.5558027929652084  0.12511142793519828  1.0000
  H   H49       1.0  0.26568657971075427  0.9989819960610503  0.7181391932930411  1.0000
  H   H50       1.0  0.7343134205730383  0.49898199614314814  0.781860806422539  1.0000
  H   H51       1.0  0.73431342048261  0.0010180037747540768  0.2818608067249468  1.0000
  H   H52       1.0  0.2656865796203258  0.5010180036926563  0.218139193595449  1.0000
  H   H53       1.0  0.5094365902691773  0.34745764394142903  0.3390198135245725  1.0000
  H   H54       1.0  0.4905634098337583  0.8474576438593312  0.16098018679582335  1.0000
  H   H55       1.0  0.49056340992418673  0.6525423558943753  0.6609801864934154  1.0000
  H   H56       1.0  0.5094365903596058  0.15254235597647312  0.8390198132221646  1.0000
  C   C1        1.0  0.0011245703238916447  0.2080655604402447  0.15302390100921223  1.0000
  C   C2        1.0  0.998875429779044  0.7080655603581468  0.34697609931118356  1.0000
  C   C3        1.0  0.9988754298694725  0.7919344393955596  0.8469760990087756  1.0000
  C   C4        1.0  0.0011245696248583894  0.29193443947765746  0.6530239006671299  1.0000
  C   C5        1.0  0.10004238550958093  0.13103299350842113  0.15266806672829442  1.0000
  C   C6        1.0  0.899957614592037  0.6310329934263234  0.34733193297662907  1.0000
  C   C7        1.0  0.8999576146837831  0.8689670063273833  0.8473319332896935  1.0000
  C   C8        1.0  0.10004238560132699  0.36896700640948105  0.6526680670413588  1.0000
  C   C9        1.0  0.14780510936801236  0.11010455806222824  0.07825529090048869  1.0000
  C   C10       1.0  0.8521948907336058  0.6101045579801304  0.42174470880443476  1.0000
  C   C11       1.0  0.8521948908253518  0.8898954417735762  0.9217447091174992  1.0000
  C   C12       1.0  0.14780510945975842  0.389895441855674  0.5782552912135531  1.0000
  C   C13       1.0  0.2533315378583393  0.023303748739040286  0.08168403719643208  1.0000
  C   C14       1.0  0.7466684622445965  0.5233037486569425  0.41831596312396374  1.0000
  C   C15       1.0  0.7466684623350248  0.9766962510967642  0.9183159628215558  1.0000
  C   C16       1.0  0.2533315379487677  0.47669625117886194  0.5816840368940241  1.0000
  C   C17       1.0  0.09263869427243564  0.17106677498673245  0.006145209954067157  1.0000
  C   C18       1.0  0.9073613058305  0.6710667749046347  0.4938547903663286  1.0000
  C   C19       1.0  0.9073613059209285  0.828933224849072  0.9938547900639209  1.0000
  C   C20       1.0  0.09263869357340239  0.3289332249311698  0.506145209611985  1.0000
  C   C21       1.0  0.9950744028016991  0.2532856308319768  0.0069143353660614925  1.0000
  C   C22       1.0  0.004925597299918981  0.7532856307498791  0.493085664338862  1.0000
  C   C23       1.0  0.004925597391665049  0.7467143690038275  0.9930856646519263  1.0000
  C   C24       1.0  0.9950744028934452  0.24671436908592537  0.5069143356791259  1.0000
  C   C25       1.0  0.9480212316265434  0.27092191742395444  0.0811199218179714  1.0000
  C   C26       1.0  0.051978768475074606  0.7709219173418566  0.4188800778869521  1.0000
  C   C27       1.0  0.05197876856682067  0.7290780824118499  0.9188800782000165  1.0000
  C   C28       1.0  0.9480212309288278  0.22907808249394776  0.5811199220913615  1.0000
  C   C29       1.0  0.4838197641297861  0.2939571630559898  0.3961331475435612  1.0000
  C   C30       1.0  0.5161802359731495  0.793957162973892  0.10386685277683463  1.0000
  C   C31       1.0  0.516180236063578  0.7060428367798146  0.6038668524744266  1.0000
  C   C32       1.0  0.48381976422021455  0.2060428368619124  0.8961331472411532  1.0000
  C   C33       1.0  0.4322501873770863  0.09635965737077246  0.6500259103721655  1.0000
  C   C34       1.0  0.5677498129067062  0.5963596572886747  0.8499740893434145  1.0000
  C   C35       1.0  0.5677498128162778  0.9036403424650319  0.3499740896458224  1.0000
  C   C36       1.0  0.4322501872866579  0.4036403425471297  0.15002591067457338  1.0000
  C   C37       1.0  0.47778021920631836  0.22048044679008685  0.5234396572282211  1.0000
  C   C38       1.0  0.5222197802880124  0.720480446707989  0.9765603424476844  1.0000
  C   C39       1.0  0.5222197809870457  0.7795195530457175  0.4765603427897667  1.0000
  C   C40       1.0  0.47778021911588997  0.27951955312781535  0.023439657530629085  1.0000
  C   C41       1.0  0.38535084167351985  0.16027572623360195  0.4826721448367021  1.0000
  C   C42       1.0  0.6146491584294158  0.6602757261515041  0.01732785548369364  1.0000
  C   C43       1.0  0.6146491585198443  0.839724274893915  0.5173278551812858  1.0000
  C   C44       1.0  0.38535084097448663  0.3397242736843002  0.9826721444946199  1.0000
  C   C45       1.0  0.31243996326160145  0.17819672563253453  0.33279952406866103  1.0000
  C   C46       1.0  0.6875600368400167  0.6781967255504366  0.16720047563626247  1.0000
  C   C47       1.0  0.6875600369317626  0.8218032742032698  0.6672004759493269  1.0000
  C   C48       1.0  0.3124399625638858  0.32180327428536765  0.8327995243420511  1.0000
  C   C49       1.0  0.6014569005742869  0.2509121814802425  0.6462185363979027  1.0000
  C   C50       1.0  0.39854309970950563  0.7509121813981446  0.8537814633176772  1.0000
  C   C51       1.0  0.3985430996190773  0.7490878196472744  0.35378146362008517  1.0000
  C   C52       1.0  0.6014569004838585  0.2490878184376597  0.14621853670031065  1.0000
  C   C53       1.0  0.3100666667042658  0.05938604997698008  0.5229448146150317  1.0000
  C   C54       1.0  0.6899333327913827  0.5593860498948823  0.9770551856763463  1.0000
  C   C55       1.0  0.6899333326996366  0.9406139498588243  0.4770551853632819  1.0000
  C   C56       1.0  0.31006666740198136  0.44061394994092207  0.022944814341641556  1.0000
  C   C57       1.0  0.26692017081271946  0.9411375287215727  0.6568724252931906  1.0000
  C   C58       1.0  0.733079828682929  0.4411375288036706  0.8431275749981875  1.0000
  C   C59       1.0  0.7330798285911829  0.058862471114231645  0.34312757468512295  1.0000
  C   C60       1.0  0.26692017072097335  0.5588624710321338  0.1568724249801262  1.0000
  N   N1        1.0  0.9496595659390842  0.22031934957604885  0.23062901847286985  1.0000
  N   N2        1.0  0.05034043337438986  0.720319349493951  0.26937098180785163  1.0000
  N   N3        1.0  0.050340433464818306  0.7796806502597555  0.7693709815054438  1.0000
  N   N4        1.0  0.9496595660295126  0.2796806503418534  0.730629018170462  1.0000
  N   N5        1.0  0.5385628505858291  0.3032230016273406  0.4697973520136793  1.0000
  N   N6        1.0  0.46143714951710657  0.8032230015452428  0.03020264830671654  1.0000
  N   N7        1.0  0.461437149607535  0.6967769982084637  0.5302026480043087  1.0000
  N   N8        1.0  0.5385628506762575  0.1967769982905616  0.9697973517112712  1.0000
  N   N9        1.0  0.50226474182662  0.19011458297800515  0.6053635052995595  1.0000
  N   N10       1.0  0.49773525845849026  0.6901145828959073  0.8946364950314929  1.0000
  N   N11       1.0  0.4977352583667442  0.8098854168577992  0.3946364947184284  1.0000
  N   N12       1.0  0.5022647417348738  0.3098854169398971  0.1053635049864951  1.0000
  N   N13       1.0  0.39150939105650806  0.20870371936709103  0.400830447328148  1.0000
  N   N14       1.0  0.60849060904511  0.7087037192849932  0.09916955237677547  1.0000
  N   N15       1.0  0.608490609136856  0.7912962804687134  0.59916955268984  1.0000
  N   N16       1.0  0.3915093911482541  0.2912962805508112  0.9008304476412123  1.0000
  N   N17       1.0  0.3385450074076427  0.04052153340362943  0.6080844413779288  1.0000
  N   N18       1.0  0.6614549920880057  0.5405215333215316  0.8919155589134491  1.0000
  N   N19       1.0  0.6614549919962596  0.9594784664321749  0.3919155586003847  1.0000
  N   N20       1.0  0.33854500810535837  0.45947846651427277  0.10808444110453883  1.0000
  O   O1        1.0  0.27734171089253734  0.9517900426026069  0.011334727381658732  1.0000
  O   O2        1.0  0.7226582892103983  0.4517900426847047  0.48866527293873707  1.0000
  O   O3        1.0  0.7226582893008268  0.048209957233197494  0.9886652726363291  1.0000
  O   O4        1.0  0.2773417109829658  0.5482099571510998  0.5113347270792508  1.0000
  O   O5        1.0  0.9970398862805543  0.161706208680436  0.29416604938836943  1.0000
  O   O6        1.0  0.0029601138210638605  0.6617062085983382  0.20583395031655405  1.0000
  O   O7        1.0  0.0029601139128099282  0.8382937911553684  0.7058339506296184  1.0000
  O   O8        1.0  0.9970398863723003  0.3382937912374662  0.7941660497014339  1.0000
  O   O9        1.0  0.3104528610933804  0.018556409561614907  0.1463042601860037  1.0000
  O   O10       1.0  0.6895471390082377  0.5185564094795171  0.35369573951891975  1.0000
  O   O11       1.0  0.6895471390999838  0.9814435902741895  0.8536957398319842  1.0000
  O   O12       1.0  0.3104528611851264  0.4814435903562873  0.6463042604990681  1.0000
  O   O13       1.0  0.8604300987095805  0.2872509612736824  0.22927406842613962  1.0000
  O   O14       1.0  0.13956990139335518  0.7872509611915846  0.27072593189425614  1.0000
  O   O15       1.0  0.13956990148378362  0.7127490398538345  0.7707259315918483  1.0000
  O   O16       1.0  0.860430098800009  0.21274903864421982  0.7292740681237316  1.0000
  O   O17       1.0  0.45223176652142605  0.06066754243087985  0.7236248276159224  1.0000
  O   O18       1.0  0.5477682337636841  0.5606675423487821  0.7763751727151299  1.0000
  O   O19       1.0  0.547768233671938  0.9393324574049245  0.27637517240206555  1.0000
  O   O20       1.0  0.45223176642968005  0.4393324574870224  0.22362482730285793  1.0000
  O   O21       1.0  0.2286899511446019  0.9920673028419887  0.4910541286184432  1.0000
  O   O22       1.0  0.7713100489583338  0.4920673029240865  0.008945871701952554  1.0000
  O   O23       1.0  0.7713100490487622  0.00793269699381567  0.5089458713995446  1.0000
  O   O24       1.0  0.22868995123503036  0.5079326969117178  0.9910541283160353  1.0000
  F   F1        1.0  0.13407976841258165  0.15206492612560718  0.9322827841275719  1.0000
  F   F2        1.0  0.8659202318712109  0.6520649260435093  0.5677172155880081  1.0000
  F   F3        1.0  0.8659202317807826  0.8479350737101972  0.06771721589041599  1.0000
  F   F4        1.0  0.13407976832215324  0.347935073792295  0.4322827844299798  1.0000
