data_image0
_chemical_formula_structural       H52C52N12O16
_chemical_formula_sum              "H52 C52 N12 O16"
_cell_length_a       11.16872101690148
_cell_length_b       3.6596507862562335
_cell_length_c       29.762148377166586
_cell_angle_alpha    90.0
_cell_angle_beta     94.25789799394845
_cell_angle_gamma    90.0

_space_group_name_H-M_alt    "P 1"
_space_group_IT_number       1

loop_
  _space_group_symop_operation_xyz
  'x, y, z'

loop_
  _atom_site_type_symbol
  _atom_site_label
  _atom_site_symmetry_multiplicity
  _atom_site_fract_x
  _atom_site_fract_y
  _atom_site_fract_z
  _atom_site_occupancy
  H   H1        1.0  0.562652087230926  0.7546483288437549  0.5937578951134559  1.0000
  H   H2        1.0  0.9373479127378953  0.2546483269660119  0.906242104854232  1.0000
  H   H3        1.0  0.4373479127517127  0.24535167217922982  0.40624210508909253  1.0000
  H   H4        1.0  0.06265208723960669  0.7453516713244716  0.09375789501218161  1.0000
  H   H5        1.0  0.6134698399314471  0.5910648027192804  0.5158253391811713  1.0000
  H   H6        1.0  0.8865301600373743  0.09106480357403865  0.9841746607865164  1.0000
  H   H7        1.0  0.3865301600460549  0.40893519830370423  0.4841746606852421  1.0000
  H   H8        1.0  0.1134698399401278  0.9089351974489459  0.015825339079897156  1.0000
  H   H9        1.0  0.954550868388923  0.2512799755248597  0.5607536796826381  1.0000
  H   H10       1.0  0.5454491315798985  0.7512799774026027  0.9392463202850494  1.0000
  H   H11       1.0  0.04544913159371576  0.7487200227656238  0.43924632051991014  1.0000
  H   H12       1.0  0.45455086839760356  0.248720023620382  0.060753679581364045  1.0000
  H   H13       1.0  0.9192267117519728  0.40055108140511125  0.6412789030899266  1.0000
  H   H14       1.0  0.5807732882219852  0.900551080550353  0.8587210972138959  1.0000
  H   H15       1.0  0.08077328823066582  0.5994489196178733  0.3587210971126218  1.0000
  H   H16       1.0  0.4192267117606535  0.09944891774013048  0.14127890298865242  1.0000
  H   H17       1.0  0.5420977332827069  0.5240979541553745  0.6628193747089505  1.0000
  H   H18       1.0  0.9579022666861144  0.02409795501013284  0.8371806252587372  1.0000
  H   H19       1.0  0.45790226669479506  0.4759020441351089  0.33718062515746305  1.0000
  H   H20       1.0  0.042097733291387676  0.9759020460128517  0.16281937460767631  1.0000
  H   H21       1.0  0.5721899112965476  0.9820645465674664  0.7342361377455948  1.0000
  H   H22       1.0  0.9278100886722739  0.4820645474222247  0.7657638622220929  1.0000
  H   H23       1.0  0.4278100886860911  0.017935451723017033  0.2657638624569536  1.0000
  H   H24       1.0  0.0721899113052282  0.5179354508682588  0.23423613764432058  1.0000
  H   H25       1.0  0.6388582960629827  0.5983004083949488  0.7509106218536059  1.0000
  H   H26       1.0  0.8611417039058386  0.09830040924970707  0.7490893781140818  1.0000
  H   H27       1.0  0.3611417039145193  0.40169958989553467  0.24908937801280764  1.0000
  H   H28       1.0  0.1388582960716634  0.9016995917732775  0.2509106217523317  1.0000
  H   H29       1.0  0.9481904038004229  0.20075581330304546  0.39053062199197675  1.0000
  H   H30       1.0  0.5518095963314705  0.7007558124482872  0.10946937793855228  1.0000
  H   H31       1.0  0.05180959618221584  0.7992441877199391  0.6094693782105717  1.0000
  H   H32       1.0  0.4481904036460315  0.29924418584219625  0.8905306219278611  1.0000
  H   H33       1.0  0.9872446862800865  0.04438106789040174  0.31117425370286655  1.0000
  H   H34       1.0  0.5127553138569435  0.5443810670356435  0.18882574656379733  1.0000
  H   H35       1.0  0.01275531370255214  0.9556189331325828  0.6888257464996818  1.0000
  H   H36       1.0  0.48724468612569516  0.45561893125484  0.811174253638751  1.0000
  H   H37       1.0  0.827051802133889  0.7340128981945769  0.2625679861505286  1.0000
  H   H38       1.0  0.6729481979980043  0.234012896316834  0.23743201378000042  1.0000
  H   H39       1.0  0.17294819784361298  0.26598710282840776  0.7374320137158848  1.0000
  H   H40       1.0  0.3270518019846344  0.7659871019736494  0.7625679864225479  1.0000
  H   H41       1.0  0.6277604968509688  0.6029620034476976  0.2915074027495283  1.0000
  H   H42       1.0  0.8722395023831035  0.10296200430245578  0.20849259715790797  1.0000
  H   H43       1.0  0.3722395031265332  0.3970379948427859  0.7084925971168852  1.0000
  H   H44       1.0  0.12776049759953517  0.8970379967205289  0.7915074030446403  1.0000
  H   H45       1.0  0.8085941846705014  0.30898800078047306  0.49055548367173984  1.0000
  H   H46       1.0  0.6914058154665287  0.8089879999257148  0.009444516594924103  1.0000
  H   H47       1.0  0.19140581531213735  0.6910119975100104  0.5094445165308086  1.0000
  H   H48       1.0  0.30859418451611004  0.19101199836476865  0.9905554836076241  1.0000
  H   H49       1.0  0.58023350083486  0.8229837888661117  0.40650040781637725  1.0000
  H   H50       1.0  0.91976649930217  0.32298378972087005  0.09349959245028663  1.0000
  H   H51       1.0  0.4197665000455997  0.17701621215687285  0.5934995924092639  1.0000
  H   H52       1.0  0.08023350068046875  0.6770162113021146  0.9065004077522617  1.0000
  C   C1        1.0  0.7377028743175973  0.5865041080041777  0.6240010432603555  1.0000
  C   C2        1.0  0.762297125651224  0.086504108858936  0.8759989567073321  1.0000
  C   C3        1.0  0.26229712565990465  0.4134958930188069  0.3759989566060579  1.0000
  C   C4        1.0  0.23770287432627804  0.9134958921640486  0.12400104315908135  1.0000
  C   C5        1.0  0.6502798225759213  0.6402276274007179  0.5883897669575312  1.0000
  C   C6        1.0  0.8497201773929  0.1402276282554761  0.9116102330101566  1.0000
  C   C7        1.0  0.3497201774015808  0.3597723736222668  0.4116102329088823  1.0000
  C   C8        1.0  0.15027982258460193  0.8597723727675084  0.08838976685625693  1.0000
  C   C9        1.0  0.6774422039666429  0.5504089536533627  0.5448675426399562  1.0000
  C   C10       1.0  0.8225577960021786  0.05040895177561992  0.9551324573277314  1.0000
  C   C11       1.0  0.32255779601085904  0.4495910473696218  0.4551324572264572  1.0000
  C   C12       1.0  0.17744220398046026  0.9495910465148635  0.044867542874816965  1.0000
  C   C13       1.0  0.8690813966619994  0.36206263859275983  0.5700166345819002  1.0000
  C   C14       1.0  0.630918603306822  0.8620626377380015  0.9299833653857874  1.0000
  C   C15       1.0  0.1309186033206394  0.6379373624302248  0.4299833656206482  1.0000
  C   C16       1.0  0.36908139667067996  0.1379373605524819  0.07001663448062598  1.0000
  C   C17       1.0  0.8493154335208467  0.4454267921195765  0.6143920749110419  1.0000
  C   C18       1.0  0.6506845673457956  0.9454267939973193  0.8856079250797386  1.0000
  C   C19       1.0  0.15068456735447627  0.554573206170907  0.3856079249784644  1.0000
  C   C20       1.0  0.3493154335346641  0.05457320702566523  0.11439207514590256  1.0000
  C   C21       1.0  0.7194531093042799  0.6864946293332199  0.6720074010326432  1.0000
  C   C22       1.0  0.7805468906645414  0.1864946301879782  0.8279925989350444  1.0000
  C   C23       1.0  0.2805468906732221  0.3135053689572635  0.3279925988337702  1.0000
  C   C24       1.0  0.21945310931809725  0.8135053708350063  0.17200740126750397  1.0000
  C   C25       1.0  0.7697550519714449  0.9870737212321216  0.38580672186325204  1.0000
  C   C26       1.0  0.7302449481604485  0.4870737220868798  0.114193278067277  1.0000
  C   C27       1.0  0.2302449480060571  0.012926279790863044  0.6141932780031614  1.0000
  C   C28       1.0  0.2697550518170536  0.5129262789361048  0.8858067217991364  1.0000
  C   C29       1.0  0.8801492470567269  0.0657270991274189  0.3684281188881271  1.0000
  C   C30       1.0  0.619850753080303  0.5657270982726607  0.13157188137853681  1.0000
  C   C31       1.0  0.11985075292591163  0.9342729018955657  0.6315718813144212  1.0000
  C   C32       1.0  0.38014924690233565  0.4342729000178228  0.8684281188240115  1.0000
  C   C33       1.0  0.9012893023693058  0.9788644707449368  0.3243710039822841  1.0000
  C   C34       1.0  0.5987106977625876  0.47886447159969514  0.175628995948245  1.0000
  C   C35       1.0  0.09871069761333284  0.021135530278047782  0.6756289962202643  1.0000
  C   C36       1.0  0.4012893022149145  0.5211355294232896  0.8243710039181684  1.0000
  C   C37       1.0  0.8101553717484582  0.809796659049999  0.29690900170743234  1.0000
  C   C38       1.0  0.6898446283834352  0.3097966599047573  0.20309099822309676  1.0000
  C   C39       1.0  0.18984462822904385  0.1902033419729856  0.7030909981589812  1.0000
  C   C40       1.0  0.3101553715940668  0.6902033411182273  0.7969090016433168  1.0000
  C   C41       1.0  0.6988714904804988  0.7348180351248724  0.3127877320220211  1.0000
  C   C42       1.0  0.8011285096513946  0.23481803324712955  0.187212267908508  1.0000
  C   C43       1.0  0.30112850949700326  0.26518196589811216  0.6872122678443925  1.0000
  C   C44       1.0  0.19887149032610746  0.7651819650433539  0.8127877319579054  1.0000
  C   C45       1.0  0.678499443236891  0.8201777479076232  0.3573562376637882  1.0000
  C   C46       1.0  0.8215005568950023  0.32017774602988025  0.14264376226674083  1.0000
  C   C47       1.0  0.3215005567406109  0.17982225311536146  0.6426437622026252  1.0000
  C   C48       1.0  0.17849944308249974  0.6798222522606031  0.8573562375996726  1.0000
  C   C49       1.0  0.7462780157597357  0.07927495461849432  0.432401513594726  1.0000
  C   C50       1.0  0.7537219843721574  0.5792749537637361  0.06759848633580307  1.0000
  C   C51       1.0  0.2537219842229029  0.9207250436719892  0.5675984866078223  1.0000
  C   C52       1.0  0.2462780156053445  0.42072504452674736  0.9324015135306104  1.0000
  N   N1        1.0  0.6066929912974367  0.6436360291112975  0.6843687838520252  1.0000
  N   N2        1.0  0.8933070086713846  0.14363602996605576  0.8156312161156624  1.0000
  N   N3        1.0  0.39330700868006535  0.3563639691791859  0.3156312160143882  1.0000
  N   N4        1.0  0.10669299130611737  0.8563639710569289  0.18436878375075108  1.0000
  N   N5        1.0  0.7847121856325764  0.41394916850788627  0.5360515145676142  1.0000
  N   N6        1.0  0.715287814336245  0.913949167653128  0.9639484854000735  1.0000
  N   N7        1.0  0.2152878143500624  0.5860508325150984  0.4639484856349341  1.0000
  N   N8        1.0  0.28471218564125694  0.08605083336985664  0.03605151446634004  1.0000
  N   N9        1.0  0.5737417006462094  0.7061453485412041  0.7284028800442927  1.0000
  N   N10       1.0  0.9262582993226119  0.2061453466634613  0.7715971199233949  1.0000
  N   N11       1.0  0.4262582993312926  0.2938546524817804  0.2715971198221207  1.0000
  N   N12       1.0  0.07374170066002675  0.7938546516270222  0.22840288027915348  1.0000
  O   O1        1.0  0.8051467477104634  0.7985057593403383  0.6975662337635761  1.0000
  O   O2        1.0  0.6948532522583579  0.29850576019509656  0.8024337662041116  1.0000
  O   O3        1.0  0.19485325226703856  0.2014942416826463  0.3024337661028374  1.0000
  O   O4        1.0  0.30514674771914413  0.7014942408278879  0.1975662336623019  1.0000
  O   O5        1.0  0.8342210511461688  0.2373797011623325  0.45676015783399815  1.0000
  O   O6        1.0  0.6657866160556091  0.7373797030400754  0.04323984206692759  1.0000
  O   O7        1.0  0.16577894883133318  0.7626202971281509  0.5432398420324154  1.0000
  O   O8        1.0  0.3342133839218929  0.2626202979829092  0.9567601577994859  1.0000
  O   O9        1.0  0.6456097726750606  0.010354703826472359  0.44750155851780254  1.0000
  O   O10       1.0  0.8543902265590116  0.5103547029717141  0.05249844138963373  1.0000
  O   O11       1.0  0.354390227307578  0.9896452971965123  0.5524984416847458  1.0000
  O   O12       1.0  0.14560977341849035  0.48964529805127055  0.9475015584767797  1.0000
  O   O13       1.0  0.5709474164600742  0.7379793148960047  0.37339175873520886  1.0000
  O   O14       1.0  0.9290525836718191  0.23797931575076292  0.12660824119532021  1.0000
  O   O15       1.0  0.42905258352256453  0.26202068612698  0.6266082414673395  1.0000
  O   O16       1.0  0.07094741630568284  0.7620206852722217  0.8733917586710933  1.0000
