data_image0
_chemical_formula_structural       H44C40N8O10
_chemical_formula_sum              "H44 C40 N8 O10"
_cell_length_a       7.313631553362721
_cell_length_b       12.260125245284215
_cell_length_c       12.26105509714243
_cell_angle_alpha    118.71202788619243
_cell_angle_beta     90.44004016469566
_cell_angle_gamma    98.69484579138064

_space_group_name_H-M_alt    "P 1"
_space_group_IT_number       1

loop_
  _space_group_symop_operation_xyz
  'x, y, z'

loop_
  _atom_site_type_symbol
  _atom_site_label
  _atom_site_symmetry_multiplicity
  _atom_site_fract_x
  _atom_site_fract_y
  _atom_site_fract_z
  _atom_site_occupancy
  H   H1        1.0  0.42973121608909237  0.29027709126753315  0.18088831650243462  1.0000
  H   H2        1.0  0.5702687833936196  0.7097229086331771  0.8191116836585521  1.0000
  H   H3        1.0  0.9327195003481396  0.4344895000293789  0.36699267805687985  1.0000
  H   H4        1.0  0.06728049913457256  0.5655104998713314  0.6330073221041069  1.0000
  H   H5        1.0  0.6520313429225097  0.366814645554379  0.452572954468619  1.0000
  H   H6        1.0  0.3479686579295753  0.6331853543543294  0.5474270457004065  1.0000
  H   H7        1.0  0.6500330166245413  0.1784850497843908  0.48242689776205877  1.0000
  H   H8        1.0  0.3499669842236102  0.8215149501224904  0.5175731015904845  1.0000
  H   H9        1.0  0.16862302641440713  0.7521435315832498  0.9284424126542218  1.0000
  H   H10       1.0  0.8313769733020113  0.24785646926227167  0.07155758796013595  1.0000
  H   H11       1.0  0.264608262676139  0.8815314294488509  0.8253305687720516  1.0000
  H   H12       1.0  0.7353917368026394  0.11846857045003216  0.17466943057245307  1.0000
  H   H13       1.0  0.4815617410077312  0.1920481829237597  0.9690657126488771  1.0000
  H   H14       1.0  0.518438259844354  0.8079518169849488  0.030934287520148377  1.0000
  H   H15       1.0  0.24794351974626966  0.2123257117641864  0.9635373523275176  1.0000
  H   H16       1.0  0.7520564811058152  0.7876742881445219  0.036462647841507864  1.0000
  H   H17       1.0  0.32707908157440113  0.08433874198621208  0.8359706239629987  1.0000
  H   H18       1.0  0.6729209179083108  0.9156612579144983  0.16402937619798796  1.0000
  H   H19       1.0  0.049932544621763914  0.926347332570533  0.33214219479208057  1.0000
  H   H20       1.0  0.9500674562303211  0.0736526673381755  0.667857805376945  1.0000
  H   H21       1.0  0.4720784041753103  0.013016058040201076  0.3355843712549632  1.0000
  H   H22       1.0  0.5279215966767747  0.9869839418685074  0.6644156289140621  1.0000
  H   H23       1.0  0.3702862375812215  0.8794709614526006  0.3553213024304904  1.0000
  H   H24       1.0  0.62971376326693  0.1205290384542807  0.6446786969220529  1.0000
  H   H25       1.0  0.2189991922091284  0.027394867576080756  0.5456485951641482  1.0000
  H   H26       1.0  0.7810008086429567  0.9726051323326277  0.4543514050048772  1.0000
  H   H27       1.0  0.3274709730716525  0.16215038332212708  0.5256308050651476  1.0000
  H   H28       1.0  0.6725290264071259  0.8378496165767562  0.4743691942793571  1.0000
  H   H29       1.0  0.45101517961305937  0.5146857042323416  0.3392207823598758  1.0000
  H   H30       1.0  0.5489848212390257  0.4853142956763667  0.6607792178091495  1.0000
  H   H31       1.0  0.9161959367536131  0.655397394928681  0.3669648559541423  1.0000
  H   H32       1.0  0.08380406272909884  0.3446026049720293  0.6330351442068445  1.0000
  H   H33       1.0  0.8158198867113362  0.674833098335661  0.24863408977539553  1.0000
  H   H34       1.0  0.18418011277137575  0.3251669015650494  0.7513659103855912  1.0000
  H   H35       1.0  0.037665496915598874  0.46402839911664595  0.20288757121412404  1.0000
  H   H36       1.0  0.9623345039364863  0.5359716007920625  0.7971124289549014  1.0000
  H   H37       1.0  0.9336858639395421  0.48263074914471715  0.08492649821729764  1.0000
  H   H38       1.0  0.06631413554316977  0.5173692507559932  0.915073501943689  1.0000
  H   H39       1.0  0.1348913691937699  0.7010996237158825  0.17211777230202369  1.0000
  H   H40       1.0  0.8651086316583152  0.2989003761928259  0.8278822278670016  1.0000
  H   H41       1.0  0.2374413892557054  0.6790678573302299  0.2882851963039052  1.0000
  H   H42       1.0  0.7625586115963795  0.32093214257847846  0.7117148038651202  1.0000
  H   H43       1.0  0.5598967819112881  0.6036407660633273  0.05917978383796801  1.0000
  H   H44       1.0  0.4401032175714239  0.39635923383738303  0.9408202163230186  1.0000
  C   C1        1.0  0.2232158930806691  0.32257010891742466  0.2931685488318664  1.0000
  C   C2        1.0  0.776784107771416  0.6774298909912837  0.7068314513371591  1.0000
  C   C3        1.0  0.2619100430513987  0.1122067242424335  0.1242502167902982  1.0000
  C   C4        1.0  0.7380899578006864  0.887793275666275  0.8757497833787271  1.0000
  C   C5        1.0  0.19754832931924726  0.03153293725547974  0.17278907955065778  1.0000
  C   C6        1.0  0.8024516715328379  0.9684670626532288  0.8272109206183678  1.0000
  C   C7        1.0  0.03358762072713932  0.1631249334402847  0.3440157908598565  1.0000
  C   C8        1.0  0.9664123801249457  0.8368750664684236  0.6559842093091689  1.0000
  C   C9        1.0  0.054249942475607056  0.2734216532501381  0.3323364019338134  1.0000
  C   C10       1.0  0.945750057007105  0.7265783466505722  0.6676635982271734  1.0000
  C   C11       1.0  0.9161288558028174  0.34785385457972723  0.37289537972610165  1.0000
  C   C12       1.0  0.08387114367989455  0.652146145320983  0.627104620434885  1.0000
  C   C13       1.0  0.7628849401125776  0.31192341090392306  0.42214372467842837  1.0000
  C   C14       1.0  0.2371150607395075  0.6880765890047853  0.5778562754905971  1.0000
  C   C15       1.0  0.7622320181345673  0.20670499817979401  0.4379515760797019  1.0000
  C   C16       1.0  0.23776798134814453  0.7932950017209163  0.5620484240812849  1.0000
  C   C17       1.0  0.1919022391805258  0.8551439493216403  0.9819173231698892  1.0000
  C   C18       1.0  0.8080977603021863  0.14485605057907003  0.018082676991097633  1.0000
  C   C19       1.0  0.24749633506485375  0.927425980334949  0.924829886917802  1.0000
  C   C20       1.0  0.7525036644178582  0.07257401956576122  0.07517011324318476  1.0000
  C   C21       1.0  0.28214673793567824  0.0592209886214604  0.9956596058718301  1.0000
  C   C22       1.0  0.7178532629124732  0.9407790112854207  0.004340393480713143  1.0000
  C   C23       1.0  0.3378034818514245  0.14099944109103607  0.9379480942907675  1.0000
  C   C24       1.0  0.662196517627354  0.8590005588078471  0.06205190505373722  1.0000
  C   C25       1.0  0.1709458398952376  0.9999143818514883  0.3546470213312542  1.0000
  C   C26       1.0  0.8290541609568476  8.561805722024904e-05  0.6453529788377713  1.0000
  C   C27       1.0  0.3593027776208461  0.9727581537979026  0.369794991947759  1.0000
  C   C28       1.0  0.6406972234649454  0.027241847055616875  0.6302050086746375  1.0000
  C   C29       1.0  0.2724029867697096  0.06136874446973406  0.48276052009511167  1.0000
  C   C30       1.0  0.7275970127130024  0.938631255430976  0.5172394800658751  1.0000
  C   C31       1.0  0.6805414562643042  0.5176394592398423  0.261501542354213  1.0000
  C   C32       1.0  0.31945854458778083  0.4823605406688661  0.7384984578148123  1.0000
  C   C33       1.0  0.8572185149591107  0.6029390532851452  0.2686960680328453  1.0000
  C   C34       1.0  0.14278148588904085  0.3970609466217361  0.731303931319698  1.0000
  C   C35       1.0  0.997525162183474  0.5347400256294357  0.18132873710271724  1.0000
  C   C36       1.0  0.0024748386686111318  0.46525997427927274  0.8186712630663082  1.0000
  C   C37       1.0  0.16968624660440693  0.6275154912617142  0.192225203410582  1.0000
  C   C38       1.0  0.8303137542476782  0.37248450864699423  0.8077747967584433  1.0000
  C   C39       1.0  0.3145587950520952  0.5676109562774032  0.1075775945646872  1.0000
  C   C40       1.0  0.6854412057999899  0.43238904363130515  0.8924224056043382  1.0000
  N   N1        1.0  0.31560878303376383  0.24422258576084804  0.20155062446748598  1.0000
  N   N2        1.0  0.6843912164489482  0.7557774141398623  0.7984493756935007  1.0000
  N   N3        1.0  0.1635213694719505  0.08147671585937295  0.3006711056892707  1.0000
  N   N4        1.0  0.8364786300107615  0.9185232840413374  0.6993288944717161  1.0000
  N   N5        1.0  0.893176084403937  0.1337048429446331  0.4002888020183639  1.0000
  N   N6        1.0  0.10682391507877499  0.8662951569560773  0.5997111981426229  1.0000
  N   N7        1.0  0.16419653431727083  0.9059074413329302  0.10346725901595692  1.0000
  N   N8        1.0  0.8358034651615074  0.09409255856595279  0.8965327403285479  1.0000
  O   O1        1.0  0.2754639879757553  0.4406555286291736  0.34761062745749605  1.0000
  O   O2        1.0  0.7245360115069567  0.5593444712715366  0.6523893727034907  1.0000
  O   O3        1.0  0.5694542249622131  0.5777531615190289  0.3477575771036637  1.0000
  O   O4        1.0  0.430545775889872  0.42224683838967947  0.6522424230653616  1.0000
  O   O5        1.0  0.6423066993448059  0.40369548977811187  0.1838241755563816  1.0000
  O   O6        1.0  0.3576933015072791  0.5963045101305965  0.8161758246126438  1.0000
  O   O7        1.0  0.29035374754373416  0.45277334986011564  0.029798216010949407  1.0000
  O   O8        1.0  0.7096462519389778  0.5472266500405946  0.9702017841500373  1.0000
  O   O9        1.0  0.46770171413072725  0.647812164048482  0.12293938019580475  1.0000
  O   O10       1.0  0.5322982869511307  0.3521878368032103  0.8770606196101097  1.0000
