data_image0
_chemical_formula_structural       H36C32N12O12
_chemical_formula_sum              "H36 C32 N12 O12"
_cell_length_a       7.688360137313989
_cell_length_b       8.726576737937595
_cell_length_c       12.367372536646053
_cell_angle_alpha    90.0
_cell_angle_beta     97.09180171120151
_cell_angle_gamma    90.0

_space_group_name_H-M_alt    "P 1"
_space_group_IT_number       1

loop_
  _space_group_symop_operation_xyz
  'x, y, z'

loop_
  _atom_site_type_symbol
  _atom_site_label
  _atom_site_symmetry_multiplicity
  _atom_site_fract_x
  _atom_site_fract_y
  _atom_site_fract_z
  _atom_site_occupancy
  H   H1        1.0  0.5504087212349974  0.5843679512758405  0.7326523093144051  1.0000
  H   H2        1.0  0.949591278748724  0.0843679511576725  0.7673476906796943  1.0000
  H   H3        1.0  0.4495912787556421  0.41563204781457086  0.26734769014272364  1.0000
  H   H4        1.0  0.050408721239677615  0.9156320479327389  0.23265230958584077  1.0000
  H   H5        1.0  0.39696302451359927  0.3686082099084617  0.8200132122146029  1.0000
  H   H6        1.0  0.1030369747184008  0.8686082100266297  0.6799867882032735  1.0000
  H   H7        1.0  0.6030369754748024  0.6313917903278744  0.17998678805093218  1.0000
  H   H8        1.0  0.8969630252700008  0.13139179020970632  0.3200132120622615  1.0000
  H   H9        1.0  0.2198592077347532  0.6660076126682383  0.044249339471867676  1.0000
  H   H10       1.0  0.2801407922605665  0.16600761255007024  0.4557506602566967  1.0000
  H   H11       1.0  0.7801407922536485  0.3339923875680978  0.9557506607936674  1.0000
  H   H12       1.0  0.7198592077300728  0.8339923876862658  0.5442493392004321  1.0000
  H   H13       1.0  0.3638046262866984  0.8923295369818  0.96663320250642  1.0000
  H   H14       1.0  0.13619537294753944  0.3923295380095566  0.53336679710305  1.0000
  H   H15       1.0  0.6361953737017032  0.10767046210861146  0.03336679775911491  1.0000
  H   H16       1.0  0.8638046270431  0.6076704622267796  0.4666332023540788  1.0000
  H   H17       1.0  0.40310458615204636  0.04700969375729721  0.8535290016834228  1.0000
  H   H18       1.0  0.09689541439064657  0.5470096927295406  0.6464709988364306  1.0000
  H   H19       1.0  0.5968954138363552  0.9529903064790388  0.14647099858211238  1.0000
  H   H20       1.0  0.903104585597755  0.45299030636087084  0.3535290014291046  1.0000
  H   H21       1.0  0.6570486035688925  0.2024278033699487  0.7790026498893079  1.0000
  H   H22       1.0  0.8429513964148289  0.702427802342192  0.7209973501047916  1.0000
  H   H23       1.0  0.3429513964195092  0.7975721968663874  0.22099735037622723  1.0000
  H   H24       1.0  0.15704860357581052  0.29757219674821933  0.2790026493523372  1.0000
  H   H25       1.0  0.5630199987048442  0.12111792879848028  0.6675475077434958  1.0000
  H   H26       1.0  0.9369800012788772  0.6211179289166483  0.8324524922506038  1.0000
  H   H27       1.0  0.43698000128579517  0.8788820702919311  0.33245249171363306  1.0000
  H   H28       1.0  0.06301999870952452  0.378882070173763  0.16754750801493135  1.0000
  H   H29       1.0  0.9594987182713897  0.09915861121557103  0.0972680000508573  1.0000
  H   H30       1.0  0.5405012824734136  0.599158611333739  0.4027320000623364  1.0000
  H   H31       1.0  0.04050128171924982  0.900841389020765  0.9027319994062715  1.0000
  H   H32       1.0  0.45949871751498805  0.400841388902597  0.5972680002031986  1.0000
  H   H33       1.0  0.23211218678177364  0.4215776495732121  0.9711074282103173  1.0000
  H   H34       1.0  0.26788781376315707  0.9215776496913801  0.5288925715011296  1.0000
  H   H35       1.0  0.767887813206628  0.5784223495171993  0.028892572055217756  1.0000
  H   H36       1.0  0.7321121862274824  0.0784223493990312  0.4711074279559992  1.0000
  C   C1        1.0  0.5482327229429644  0.8817642646225735  0.7813807893965713  1.0000
  C   C2        1.0  0.9517672770407569  0.3817642645044055  0.7186192105975281  1.0000
  C   C3        1.0  0.4517672770454371  0.11823573561376255  0.21861921086896374  1.0000
  C   C4        1.0  0.048232722949882595  0.6182357357319306  0.2813807888596007  1.0000
  C   C5        1.0  0.4645162225895472  0.7556315732987433  0.8400269621986729  1.0000
  C   C6        1.0  0.03548377664469068  0.2556315731805752  0.6599730374107973  1.0000
  C   C7        1.0  0.5354837774010922  0.24436842693759278  0.1599730372584559  1.0000
  C   C8        1.0  0.9645162233437109  0.7443684270557608  0.3400269628547378  1.0000
  C   C9        1.0  0.4766654746925923  0.6062626719363908  0.8005126866308115  1.0000
  C   C10       1.0  0.02333452585233844  0.10626267181822281  0.6994873130806354  1.0000
  C   C11       1.0  0.5233345252958094  0.39373732829994523  0.19948731363472352  1.0000
  C   C12       1.0  0.9766654741383011  0.8937373284181133  0.3005126863764934  1.0000
  C   C13       1.0  0.39335534957428814  0.48735951653421583  0.8478906868357253  1.0000
  C   C14       1.0  0.10664464965994971  0.9873595166523839  0.6521093127737448  1.0000
  C   C15       1.0  0.6066446504163512  0.5126404837021203  0.15210931262140345  1.0000
  C   C16       1.0  0.8933553503284519  0.012640483583952278  0.3478906874917903  1.0000
  C   C17       1.0  0.29420780503958455  0.6566970041169173  0.9749319014312826  1.0000
  C   C18       1.0  0.2057921955031084  0.15669700514467402  0.5250680990885704  1.0000
  C   C19       1.0  0.7057921949488172  0.34330299497349404  0.02506809883425232  1.0000
  C   C20       1.0  0.7942078044852933  0.8433029950916621  0.47493190117696465  1.0000
  C   C21       1.0  0.3747528311569671  0.7796418955926052  0.9306007023765632  1.0000
  C   C22       1.0  0.12524716807503292  0.2796418954744372  0.5693992980413133  1.0000
  C   C23       1.0  0.6252471688314345  0.22035810464373085  0.06939929788897187  1.0000
  C   C24       1.0  0.8747528319133687  0.7203581047618989  0.43060070222422187  1.0000
  C   C25       1.0  0.1459414356792145  0.1795086099672825  0.9887090596473082  1.0000
  C   C26       1.0  0.3540585648657163  0.6795086100854506  0.5112909400641388  1.0000
  C   C27       1.0  0.854058564311425  0.8204913902690536  0.011290939809820618  1.0000
  C   C28       1.0  0.6459414351226854  0.32049139015088557  0.4887090602013963  1.0000
  C   C29       1.0  0.02185477797025761  0.065744106449649  0.026276495471929163  1.0000
  C   C30       1.0  0.4781452220228243  0.5657441054218924  0.4737235050650415  1.0000
  C   C31       1.0  0.978145222018144  0.9342558937866872  0.9737235047936059  1.0000
  C   C32       1.0  0.5218547779655773  0.434255893668519  0.5262764952004936  1.0000
  N   N1        1.0  0.5411507564055673  0.1536587954553307  0.7447153488057879  1.0000
  N   N2        1.0  0.9588492435781542  0.6536587955734988  0.7552846511883115  1.0000
  N   N3        1.0  0.45884924358283435  0.8463412047810054  0.25528465145974716  1.0000
  N   N4        1.0  0.04115075641248541  0.3463412046628373  0.24471534826881725  1.0000
  N   N5        1.0  0.4993756214002191  0.025156410880526184  0.8044603484178767  1.0000
  N   N6        1.0  0.0006243778340187716  0.5251564109986943  0.6955396511915934  1.0000
  N   N7        1.0  0.5006243785881825  0.97484358935581  0.1955396518476584  1.0000
  N   N8        1.0  0.9993756221566207  0.47484358923764186  0.3044603482655353  1.0000
  N   N9        1.0  0.303495737213403  0.515591423202606  0.9324766334065685  1.0000
  N   N10       1.0  0.1965042633292899  0.015591423084438016  0.5675233671132847  1.0000
  N   N11       1.0  0.6965042627749986  0.48440857588780534  0.06752336685896664  1.0000
  N   N12       1.0  0.8034957366591117  0.9844085760059734  0.4324766331522503  1.0000
  O   O1        1.0  0.6507729829294681  0.8525392973004763  0.7129833007705768  1.0000
  O   O2        1.0  0.8492270170542533  0.35253929718230825  0.7870166992235227  1.0000
  O   O3        1.0  0.3492270170589336  0.14746070293585978  0.28701669949495817  1.0000
  O   O4        1.0  0.15077298293414834  0.6474607030540278  0.2129833010420125  1.0000
  O   O5        1.0  0.25481953813627134  0.1416652929464952  0.9253316395029939  1.0000
  O   O6        1.0  0.24518046109796654  0.6416652930646634  0.5746683601064763  1.0000
  O   O7        1.0  0.745180461854368  0.858334707289841  0.07466835995413484  1.0000
  O   O8        1.0  0.7548195388904351  0.3583347071716728  0.42533164015905883  1.0000
  O   O9        1.0  0.12884152597461762  0.3167235083127467  0.024457093170254903  1.0000
  O   O10       1.0  0.37115847402070207  0.8167235084309147  0.4755429065583095  1.0000
  O   O11       1.0  0.8711584740137841  0.6832764919235894  0.9755429070952801  1.0000
  O   O12       1.0  0.6288415259699374  0.18327649180542133  0.5244570928988193  1.0000
