data_image0
_chemical_formula_structural       H28C28N8O2S8I16
_chemical_formula_sum              "H28 C28 N8 O2 S8 I16"
_cell_length_a       8.422857870551955
_cell_length_b       10.297632798772899
_cell_length_c       18.492400042903128
_cell_angle_alpha    92.96360885332197
_cell_angle_beta     94.57562589096663
_cell_angle_gamma    106.55235905985215

_space_group_name_H-M_alt    "P 1"
_space_group_IT_number       1

loop_
  _space_group_symop_operation_xyz
  'x, y, z'

loop_
  _atom_site_type_symbol
  _atom_site_label
  _atom_site_symmetry_multiplicity
  _atom_site_fract_x
  _atom_site_fract_y
  _atom_site_fract_z
  _atom_site_occupancy
  H   H1        1.0  0.5542888676547147  0.3070012140577341  0.21706718104319114  1.0000
  H   H2        1.0  0.4457111313947503  0.6929987856578872  0.7829328185642834  1.0000
  H   H3        1.0  0.5534130199312568  0.7702565133901002  0.2052967913327835  1.0000
  H   H4        1.0  0.4465869804033893  0.2297434863904591  0.7947032088285332  1.0000
  H   H5        1.0  0.7664690445774639  0.5064748268233402  0.039009107810567066  1.0000
  H   H6        1.0  0.2335309556507738  0.49352517286494396  0.9609908918067356  1.0000
  H   H7        1.0  0.3752230753141399  0.37710251298284614  0.4186576353715111  1.0000
  H   H8        1.0  0.6247769250205062  0.6228974867977131  0.5813423647898056  1.0000
  H   H9        1.0  0.9251542128596582  0.6186714841825602  0.7475443357216718  1.0000
  H   H10       1.0  0.0748457873685797  0.38132851550572405  0.25245566389563096  1.0000
  H   H11       1.0  0.4254257468379006  0.8242096165524847  0.318798007987528  1.0000
  H   H12       1.0  0.5745742534967455  0.17579038322807455  0.6812019921737887  1.0000
  H   H13       1.0  0.6897963557746266  0.7408745372535926  0.12563692321558195  1.0000
  H   H14       1.0  0.3102036437663845  0.25912546356590277  0.8743630769291263  1.0000
  H   H15       1.0  0.6855393965372719  0.26021097413802335  0.10458782919954282  1.0000
  H   H16       1.0  0.3144606026186013  0.7397890256698729  0.8954121709519458  1.0000
  H   H17       1.0  0.9148606099774008  0.835037423895559  0.6811413312995994  1.0000
  H   H18       1.0  0.08513939035724516  0.1649625758850001  0.3188586688617174  1.0000
  H   H19       1.0  0.5835491033389658  0.03020319157485151  0.06041949419894651  1.0000
  H   H20       1.0  0.4164508957104993  0.9697968081407697  0.939580505408528  1.0000
  H   H21       1.0  0.7183328648972417  0.0453625384528823  0.9895960892673971  1.0000
  H   H22       1.0  0.2816671354374044  0.9546374613276769  0.010403910893919673  1.0000
  H   H23       1.0  0.8051207261246245  0.0887147396131752  0.08157168718893885  1.0000
  H   H24       1.0  0.19487927421002152  0.9112852601673839  0.9184283129723778  1.0000
  H   H25       1.0  0.8283112178351488  0.8638047070708401  0.03747724760294244  1.0000
  H   H26       1.0  0.17168878249949732  0.13619529270971922  0.9625227525583744  1.0000
  H   H27       1.0  0.6090503051074289  0.8029346830994154  0.014797085433486111  1.0000
  H   H28       1.0  0.3909496952272173  0.19706531668114385  0.9852029147278305  1.0000
  C   C1        1.0  0.41961666764980915  0.6082872386588194  0.3419425293903346  1.0000
  C   C2        1.0  0.5803833326848371  0.3917127611217399  0.6580574707709822  1.0000
  C   C3        1.0  0.5952260113338185  0.5115480612433766  0.1869020825254143  1.0000
  C   C4        1.0  0.40477398889441923  0.48845193844490753  0.8130979170918884  1.0000
  C   C5        1.0  0.21600916293034228  0.599173129689012  0.5279518218827249  1.0000
  C   C6        1.0  0.7839908376830333  0.40082687101087133  0.4720481777277975  1.0000
  C   C7        1.0  0.5300319824472712  0.5720445997695921  0.24471150755127172  1.0000
  C   C8        1.0  0.46996801788737474  0.4279554000109671  0.755288492610045  1.0000
  C   C9        1.0  0.7074561970916113  0.48079084907369624  0.08842570015017086  1.0000
  C   C10       1.0  0.29254380324303464  0.5192091507068629  0.9115743000111457  1.0000
  C   C11       1.0  0.3352136628679717  0.46050884921827934  0.44211715644876637  1.0000
  C   C12       1.0  0.6647863378518122  0.539491151573879  0.55788284370577  1.0000
  C   C13       1.0  0.9789584029405405  0.6473217066868346  0.6967598332269642  1.0000
  C   C14       1.0  0.021041596600470648  0.3526782941326607  0.303240166917744  1.0000
  C   C15       1.0  0.34899373372307746  0.5798580111550886  0.40936431642351856  1.0000
  C   C16       1.0  0.6510062666115688  0.4201419886254706  0.5906356837377982  1.0000
  C   C17       1.0  0.44749825366570295  0.7274883693051599  0.3054164560339235  1.0000
  C   C18       1.0  0.5525017454901703  0.2725116305027363  0.6945835441175651  1.0000
  C   C19       1.0  0.1347535366492376  0.6405803782093701  0.5850177887324157  1.0000
  C   C20       1.0  0.8652464625066357  0.35941962159852614  0.4149822114190728  1.0000
  C   C21       1.0  0.6694731759648432  0.358048330774995  0.12031164581798433  1.0000
  C   C22       1.0  0.33052682426339464  0.6419516689132891  0.8796883537993184  1.0000
  C   C23       1.0  0.973436916142129  0.7594060563805654  0.6623906647085616  1.0000
  C   C24       1.0  0.02656308419251698  0.24059394339999385  0.3376093354527551  1.0000
  C   C25       1.0  0.7028415688725541  0.018478213739177757  0.04582843814526934  1.0000
  C   C26       1.0  0.297158430668457  0.9815217870803177  0.954171561999439  1.0000
  C   C27       1.0  0.7077677563012382  0.8741330721721511  0.05269970641909831  1.0000
  C   C28       1.0  0.292232242854635  0.1258669276357451  0.9473002937323901  1.0000
  N   N1        1.0  0.5996096381414043  0.37991438286089757  0.18237453081378957  1.0000
  N   N2        1.0  0.4003903609080606  0.6200856168547236  0.8176254687936849  1.0000
  N   N3        1.0  0.47299892064073384  0.5125657979244408  0.30339745483398317  1.0000
  N   N4        1.0  0.5270010795875039  0.4874342017638434  0.6966025447833195  1.0000
  N   N5        1.0  0.5163573209087267  0.7029217536202791  0.24455828851034817  1.0000
  N   N6        1.0  0.4836426798110572  0.2970782471718792  0.7554417116441884  1.0000
  N   N7        1.0  0.6609211071911594  0.5744172254965646  0.12992946622869123  1.0000
  N   N8        1.0  0.3390788931434867  0.4255827742839946  0.8700705339326256  1.0000
  O   O1        1.0  0.6878292743605594  0.8383716529857765  0.1259684294353538  1.0000
  O   O2        1.0  0.31217072597408674  0.16162834679478258  0.8740315707259629  1.0000
  S   S1        1.0  0.2765401528515019  0.6975660722054878  0.4570642521445054  1.0000
  S   S2        1.0  0.7234598463043714  0.3024339276024084  0.5429357480069831  1.0000
  S   S3        1.0  0.2552951663039231  0.4438969097948898  0.5235912160025112  1.0000
  S   S4        1.0  0.7447048328519501  0.5561030900130065  0.47640878414897725  1.0000
  S   S5        1.0  0.08369367903753344  0.5456656937611342  0.6584473865845615  1.0000
  S   S6        1.0  0.9163063212971126  0.45433430601942504  0.34155261357675526  1.0000
  S   S7        1.0  0.07033121515832733  0.784408674667949  0.5842024376565316  1.0000
  S   S8        1.0  0.9296687855614565  0.2155913261242093  0.41579756249800487  1.0000
  I   I1        1.0  0.4332802210950291  0.10233014448859729  0.3703193168573592  1.0000
  I   I2        1.0  0.5667197796247547  0.897669856303561  0.6296806832971772  1.0000
  I   I3        1.0  0.2845998062276067  0.11860158014481038  0.5100531687266693  1.0000
  I   I4        1.0  0.7154001933134043  0.8813984206746849  0.489946831418039  1.0000
  I   I5        1.0  0.5956471720265025  0.06578452018385701  0.24277462089648782  1.0000
  I   I6        1.0  0.4043528271293709  0.9342154796240393  0.7572253792550008  1.0000
  I   I7        1.0  0.062340732669155303  0.16063130199909342  0.6475793570255827  1.0000
  I   I8        1.0  0.9376592676654908  0.8393686977814659  0.3524206431357341  1.0000
  I   I9        1.0  0.9344896723282098  0.23479301564968466  0.7774742961644434  1.0000
  I   I10       1.0  0.06551032800643623  0.7652069841308745  0.22252570399687333  1.0000
  I   I11       1.0  0.8406273169142748  0.6179985639861658  0.8880079671447797  1.0000
  I   I12       1.0  0.15937268380550895  0.38200143680599247  0.11199203300975684  1.0000
  I   I13       1.0  0.8066345074342464  0.31855997110387974  0.914598577770616  1.0000
  I   I14       1.0  0.19336549290039962  0.6814400286766794  0.08540142239070057  1.0000
  I   I15       1.0  0.8492270575074727  0.8818205363690844  0.8476250272843798  1.0000
  I   I16       1.0  0.1507729416484005  0.11817946343881179  0.15237497286710863  1.0000
