data_image0
_chemical_formula_structural       H36C24N4O8
_chemical_formula_sum              "H36 C24 N4 O8"
_cell_length_a       8.111400855289856
_cell_length_b       8.783568850556044
_cell_length_c       9.18246803026498
_cell_angle_alpha    86.32951378036508
_cell_angle_beta     68.25290338053371
_cell_angle_gamma    79.87215292901615

_space_group_name_H-M_alt    "P 1"
_space_group_IT_number       1

loop_
  _space_group_symop_operation_xyz
  'x, y, z'

loop_
  _atom_site_type_symbol
  _atom_site_label
  _atom_site_symmetry_multiplicity
  _atom_site_fract_x
  _atom_site_fract_y
  _atom_site_fract_z
  _atom_site_occupancy
  H   H1        1.0  0.9358033270310412  0.3068471410297625  0.3912135376464726  1.0000
  H   H2        1.0  0.06419667257353928  0.6931528596399146  0.608786462794813  1.0000
  H   H3        1.0  0.5675148981075693  0.18771925232500108  0.06805987694222823  1.0000
  H   H4        1.0  0.43248510303249316  0.8122807471807331  0.9319401219743001  1.0000
  H   H5        1.0  0.4346338609716964  0.4272033984331124  0.6492607371509681  1.0000
  H   H6        1.0  0.5653661388448022  0.5727966010800796  0.35073926329152244  1.0000
  H   H7        1.0  0.3680196478926244  0.09933952864416162  0.6101337652691727  1.0000
  H   H8        1.0  0.6319803517119562  0.9006604720255155  0.38986623517211283  1.0000
  H   H9        1.0  0.12578036932259948  0.39258140972614103  0.7998665847056853  1.0000
  H   H10       1.0  0.874219630493899  0.6074185897870509  0.20013341573680535  1.0000
  H   H11       1.0  0.06297563223901154  0.060337738642423346  0.779581272548289  1.0000
  H   H12       1.0  0.9370243689062274  0.9396622608630092  0.22041872745558724  1.0000
  H   H13       1.0  0.04753966789872011  0.3847531022125706  0.11474466866588885  1.0000
  H   H14       1.0  0.9524603319177783  0.6152468973006212  0.8852553317766017  1.0000
  H   H15       1.0  0.03513995561804183  0.18300901595991886  0.13497552859017983  1.0000
  H   H16       1.0  0.9648600441932803  0.8169909835535746  0.8650244707649628  1.0000
  H   H17       1.0  0.3397806127956476  0.12576053945439677  0.9810523053081641  1.0000
  H   H18       1.0  0.660219386808933  0.8742394612152802  0.01894769513312153  1.0000
  H   H19       1.0  0.3534042825820206  0.32790370067387636  0.960632356084311  1.0000
  H   H20       1.0  0.6465957185632185  0.6720962988315563  0.03936764391956536  1.0000
  H   H21       1.0  0.16390004294076294  0.3999320251543207  0.4616067109442704  1.0000
  H   H22       1.0  0.8360999566638176  0.6000679755153564  0.5383932894970151  1.0000
  H   H23       1.0  0.1181926908765251  0.5113381761529214  0.30722111694534077  1.0000
  H   H24       1.0  0.8818073087280554  0.48866182451675555  0.6927788834959447  1.0000
  H   H25       1.0  0.4208549753397699  0.4563273121606147  0.1449345901193141  1.0000
  H   H26       1.0  0.5791450244767288  0.5436726873525772  0.8550654103231764  1.0000
  H   H27       1.0  0.46949810531134556  0.35145754724333794  0.30146587346915227  1.0000
  H   H28       1.0  0.5305018945051531  0.648542452269854  0.6985341269733383  1.0000
  H   H29       1.0  0.0940184278579024  0.038911363575323876  0.3416682281207826  1.0000
  H   H30       1.0  0.9059815719585963  0.961088635937868  0.6583317723217079  1.0000
  H   H31       1.0  0.14183968412580836  0.13010551141727886  0.4858442180179528  1.0000
  H   H32       1.0  0.8581603168075128  0.8698944892446389  0.5141557819847187  1.0000
  H   H33       1.0  0.4521134205354112  0.08347539758218311  0.3334442734835223  1.0000
  H   H34       1.0  0.5478865792810873  0.9165246019310088  0.6665557269589683  1.0000
  H   H35       1.0  0.40200826588064936  0.9828968856937059  0.1957618058056816  1.0000
  H   H36       1.0  0.5979917337239313  0.017103114975970963  0.8042381946356039  1.0000
  C   C1        1.0  0.6559991009462456  0.25663423187395057  0.49932274200313226  1.0000
  C   C2        1.0  0.3440008986531584  0.7433657687960281  0.5006772573508055  1.0000
  C   C3        1.0  0.467085081496476  0.30860895413377454  0.6062679202328517  1.0000
  C   C4        1.0  0.5329149181081044  0.6913910465359024  0.3937320802084341  1.0000
  C   C5        1.0  0.33795297213198483  0.21841502320542602  0.6528150431804801  1.0000
  C   C6        1.0  0.6620470276793371  0.7815849763080673  0.34718495617466266  1.0000
  C   C7        1.0  0.15799890904234876  0.27238520981554476  0.7600189180256223  1.0000
  C   C8        1.0  0.8420010918857959  0.7276147908466744  0.23998108088970116  1.0000
  C   C9        1.0  0.02969583209549414  0.1815325143062363  0.8154096583173013  1.0000
  C   C10       1.0  0.9703041677210045  0.8184674852069557  0.1845903421251893  1.0000
  C   C11       1.0  0.8428144583984251  0.23736588569198494  0.9253363854595688  1.0000
  C   C12       1.0  0.15718554120615552  0.7626341149776922  0.07466361498171686  1.0000
  C   C13       1.0  0.1086998264216354  0.2723108188117433  0.1456778578651481  1.0000
  C   C14       1.0  0.8913001731777686  0.7276891818582352  0.8543221414887896  1.0000
  C   C15       1.0  0.30992392079997055  0.23492022831731793  0.04397354593269583  1.0000
  C   C16       1.0  0.6900760788046099  0.7650797723523591  0.9560264545085899  1.0000
  C   C17       1.0  0.18210809246728527  0.3999537927257177  0.3375375778959072  1.0000
  C   C18       1.0  0.8178919086727774  0.6000462067800164  0.662462421020621  1.0000
  C   C19       1.0  0.382673059232037  0.36594043151450467  0.23278910141557096  1.0000
  C   C20       1.0  0.617326940367367  0.6340595691554738  0.7672108979383667  1.0000
  C   C21       1.0  0.16639572477198156  0.12513374421063192  0.3606806860176862  1.0000
  C   C22       1.0  0.833604276368081  0.8748662552951022  0.639319312898842  1.0000
  C   C23       1.0  0.3688800362685171  0.09057276637077834  0.26190092140618854  1.0000
  C   C24       1.0  0.6311199633360633  0.9094272342988987  0.7380990790350971  1.0000
  N   N1        1.0  0.08895931001188927  0.27761922908824477  0.3130544212899491  1.0000
  N   N2        1.0  0.9110406898046093  0.7223807704249471  0.6869455791525414  1.0000
  N   N3        1.0  0.4171014762348437  0.21845660470469985  0.1471492307299704  1.0000
  N   N4        1.0  0.5828985249052189  0.7815433948010342  0.8528507681865579  1.0000
  O   O1        1.0  0.7624466897376992  0.3557321878759984  0.48606308939899756  1.0000
  O   O2        1.0  0.2375533098617047  0.6442678127939802  0.5139369099549401  1.0000
  O   O3        1.0  0.7032672283956392  0.12816598737344914  0.43029605115573283  1.0000
  O   O4        1.0  0.2967327712089415  0.8718340132962279  0.5697039492855528  1.0000
  O   O5        1.0  0.7403473223657341  0.13127537689447435  0.96633740629646  1.0000
  O   O6        1.0  0.2596526774507645  0.8687246226187176  0.033662594146030636  1.0000
  O   O7        1.0  0.7937908890404969  0.3756303752562006  0.9707003467611304  1.0000
  O   O8        1.0  0.20620911077082527  0.6243696242572927  0.02929965259401229  1.0000
