data_image0
_chemical_formula_structural       H48C24O24S4
_chemical_formula_sum              "H48 C24 O24 S4"
_cell_length_a       9.132967152840964
_cell_length_b       9.3738260422981
_cell_length_c       10.72660054545316
_cell_angle_alpha    90.0
_cell_angle_beta     98.28913157664799
_cell_angle_gamma    90.0

_space_group_name_H-M_alt    "P 1"
_space_group_IT_number       1

loop_
  _space_group_symop_operation_xyz
  'x, y, z'

loop_
  _atom_site_type_symbol
  _atom_site_label
  _atom_site_symmetry_multiplicity
  _atom_site_fract_x
  _atom_site_fract_y
  _atom_site_fract_z
  _atom_site_occupancy
  H   H1        1.0  0.3012478310305461  0.3297967367913832  0.3546211643621814  1.0000
  H   H2        1.0  0.1987521686096553  0.8297967366688025  0.14537883639569796  1.0000
  H   H3        1.0  0.6987521682569995  0.6702032629634554  0.6453788362222117  1.0000
  H   H4        1.0  0.801247831784361  0.1702032630860361  0.854621164330532  1.0000
  H   H5        1.0  0.11818824719912518  0.27591507334671206  0.38404405381594975  1.0000
  H   H6        1.0  0.38181175355468966  0.7759150732241314  0.11595594615240086  1.0000
  H   H7        1.0  0.8818117532020339  0.7240849264081266  0.6159559459789146  1.0000
  H   H8        1.0  0.6181882468393266  0.22408492653070727  0.8840440545738291  1.0000
  H   H9        1.0  0.1617132870210963  0.3729217060596303  0.5971318858640966  1.0000
  H   H10       1.0  0.33828671356032863  0.8729217059370497  0.9028681133793401  1.0000
  H   H11       1.0  0.8382867133800628  0.6270782947620085  0.40286811393076777  1.0000
  H   H12       1.0  0.6617132868408303  0.12707829381778898  0.09713188641552431  1.0000
  H   H13       1.0  0.3085541750759868  0.2518052659980157  0.57836500031772  1.0000
  H   H14       1.0  0.1914458254982954  0.7518052658754351  0.9216349998570823  1.0000
  H   H15       1.0  0.6914458253251723  0.748194733756823  0.4216349994771444  1.0000
  H   H16       1.0  0.8085541749028637  0.24819473387940358  0.078364999937782  1.0000
  H   H17       1.0  0.39965091133362013  0.6766633871141223  0.5678653816023209  1.0000
  H   H18       1.0  0.10034908813419136  0.17666338723670297  0.9321346184306444  1.0000
  H   H19       1.0  0.6003490890603962  0.32333661264071634  0.43213461912390905  1.0000
  H   H20       1.0  0.899650911160497  0.8233366125181357  0.06786538122238299  1.0000
  H   H21       1.0  0.21705411617277087  0.6256472430292935  0.592444828972895  1.0000
  H   H22       1.0  0.2829458844086541  0.1256472431518742  0.9075551702705417  1.0000
  H   H23       1.0  0.7829458842283882  0.37435275672554513  0.40755517082196935  1.0000
  H   H24       1.0  0.717054115992505  0.8743527566029644  0.09244482952432266  1.0000
  H   H25       1.0  0.208844785124924  0.7063056184448713  0.374561896787701  1.0000
  H   H26       1.0  0.29115521451527737  0.206305618567452  0.12543810397017827  1.0000
  H   H27       1.0  0.7911552152690923  0.29369438130996733  0.6254381039385288  1.0000
  H   H28       1.0  0.7088447847722682  0.7936943811873866  0.8745618966142148  1.0000
  H   H29       1.0  0.35539473532522825  0.5822235440868062  0.34979027553194664  1.0000
  H   H30       1.0  0.1446052643221159  0.08222354420938689  0.15020972429456703  1.0000
  H   H31       1.0  0.6446052650759307  0.4177764556680324  0.6502097242629177  1.0000
  H   H32       1.0  0.8553947349725725  0.9177764555454517  0.8497902753584605  1.0000
  H   H33       1.0  0.6450758459510966  0.6356234949437224  0.16384601743098026  1.0000
  H   H34       1.0  0.8549241542697966  0.1356234950663031  0.3361539829153118  1.0000
  H   H35       1.0  0.35492415445006253  0.3643765048111162  0.8361539823638843  1.0000
  H   H36       1.0  0.14507584612421967  0.8643765046885354  0.6638460178109182  1.0000
  H   H37       1.0  0.7147158296592029  0.5288906512270369  0.04711307683093753  1.0000
  H   H38       1.0  0.785284170568833  0.028890651349617574  0.4528869225839889  1.0000
  H   H39       1.0  0.28528417074195617  0.47110934852780173  0.9528869229639269  1.0000
  H   H40       1.0  0.21471582983232604  0.9711093484052211  0.5471130772108754  1.0000
  H   H41       1.0  0.5690667496636781  0.524888080683195  0.8362675889162199  1.0000
  H   H42       1.0  0.9309332503848252  0.024888080805775727  0.6637324107051583  1.0000
  H   H43       1.0  0.43093325073748107  0.4751119190716436  0.16373241087864454  1.0000
  H   H44       1.0  0.06906675001633382  0.9751119189490629  0.3362675890897061  1.0000
  H   H45       1.0  0.40421872823112703  0.6304770072894483  0.8129600498666779  1.0000
  H   H46       1.0  0.09578127234315513  0.13047700741202903  0.6870399503081245  1.0000
  H   H47       1.0  0.595781272170032  0.3695229924653903  0.18703994992818646  1.0000
  H   H48       1.0  0.9042187280508611  0.8695229923428096  0.3129600504181056  1.0000
  C   C1        1.0  0.20931816830419409  0.3513014595257706  0.40753983051872605  1.0000
  C   C2        1.0  0.2906818324496208  0.8513014594031899  0.09246016944962458  1.0000
  C   C3        1.0  0.7906818320969651  0.6486985402290681  0.5924601692761383  1.0000
  C   C4        1.0  0.7093181679515382  0.14869854035164876  0.9075398303452398  1.0000
  C   C5        1.0  0.2583943260857807  0.35458475813416407  0.5482214927732072  1.0000
  C   C6        1.0  0.24160567338203073  0.8545847580115834  0.9517785072597582  1.0000
  C   C7        1.0  0.7416056743082355  0.6454152416206745  0.45177850795302277  1.0000
  C   C8        1.0  0.7583943259126577  0.14541524174325526  0.048221492393269255  1.0000
  C   C9        1.0  0.3110840809841308  0.5986867405770802  0.5427649920438423  1.0000
  C   C10       1.0  0.18891591848368067  0.09868674069966078  0.957235007989123  1.0000
  C   C11       1.0  0.6889159183105575  0.40131325917775856  0.4572350076091852  1.0000
  C   C12       1.0  0.8110840819103357  0.9013132590551778  0.042764992737106905  1.0000
  C   C13       1.0  0.26305112603580433  0.6049085842230821  0.40200214981272064  1.0000
  C   C14       1.0  0.23694887361153982  0.10490858434566272  0.09799785001379305  1.0000
  C   C15       1.0  0.7369488743653547  0.3950914155317566  0.5979978499821437  1.0000
  C   C16       1.0  0.7630511256831484  0.8950914154091759  0.9020021496392345  1.0000
  C   C17       1.0  0.6137476473111373  0.5648746964267177  0.08282289739401034  1.0000
  C   C18       1.0  0.8862523529168986  0.06487469654929841  0.41717710202091607  1.0000
  C   C19       1.0  0.38625235309002176  0.43512530332812094  0.9171771024008539  1.0000
  C   C20       1.0  0.11374764637778964  0.9351253032055402  0.5828228976321114  1.0000
  C   C21       1.0  0.473461205347552  0.5617353187737497  0.8799042828416943  1.0000
  C   C22       1.0  0.026538795226730198  0.06173531889633042  0.6200957173331079  1.0000
  C   C23       1.0  0.526538795053607  0.4382646809810889  0.12009571695316995  1.0000
  C   C24       1.0  0.9734612051672862  0.9382646808585081  0.3799042833931221  1.0000
  O   O1        1.0  0.009326071421377771  0.6512801733734002  0.196924475104133  1.0000
  O   O2        1.0  0.49067392822596645  0.15128017349598086  0.30307552472238075  1.0000
  O   O3        1.0  0.9906739289797813  0.34871982638143845  0.8030755246907313  1.0000
  O   O4        1.0  0.5093260710615792  0.8487198262588578  0.6969244758620122  1.0000
  O   O5        1.0  0.15074600249055833  0.4486025259083074  0.12759443215626526  1.0000
  O   O6        1.0  0.34925399826325654  0.9486025257857267  0.3724055678120854  1.0000
  O   O7        1.0  0.8492539979034579  0.5513974749133315  0.8724055685699648  1.0000
  O   O8        1.0  0.6507460021379025  0.051397475035912174  0.627594431982779  1.0000
  O   O9        1.0  0.9238700173339481  0.4037488110961514  0.22178535736997498  1.0000
  O   O10       1.0  0.5761299817876171  0.9037488109735706  0.2782146419031145  1.0000
  O   O11       1.0  0.07612998196074018  0.5962511886586873  0.7782146422830524  1.0000
  O   O12       1.0  0.4238700175070713  0.09625118878126793  0.7217853577499129  1.0000
  O   O13       1.0  0.14880503119949093  0.49368685946570634  0.37052966598811254  1.0000
  O   O14       1.0  0.35119496844785325  0.9936868593431256  0.12947033383840115  1.0000
  O   O15       1.0  0.8511949692016682  0.5063131413559325  0.6294703338067518  1.0000
  O   O16       1.0  0.6488050308468352  0.0063131404117130144  0.8705296658146263  1.0000
  O   O17       1.0  0.36860113752608975  0.46137395024024963  0.5823177319274838  1.0000
  O   O18       1.0  0.13139886194172168  0.9613739501176689  0.9176822681054814  1.0000
  O   O19       1.0  0.6313988617685986  0.5386260505813892  0.41768226772554357  1.0000
  O   O20       1.0  0.8686011384522946  0.03862605070396991  0.08231773262074846  1.0000
  O   O21       1.0  0.5254795940164647  0.64883592809974  0.9876754503784037  1.0000
  O   O22       1.0  0.9745204049255679  0.14883592822232064  0.5123245491011376  1.0000
  O   O23       1.0  0.47452040527822364  0.3511640727218989  0.012324549274623772  1.0000
  O   O24       1.0  0.025479594369120562  0.8511640725993183  0.48767545055189  1.0000
  S   S1        1.0  0.040170412248326674  0.5004414972960108  0.19990831959169322  1.0000
  S   S2        1.0  0.4598295873918748  0.0004414974185914586  0.30009168116618606  1.0000
  S   S3        1.0  0.9598295881456895  0.4995585024588278  0.8000916811345368  1.0000
  S   S4        1.0  0.5401704118956708  0.9995585023362471  0.6999083194182069  1.0000
