data_image0
_chemical_formula_structural       H20C8O18S4
_chemical_formula_sum              "H20 C8 O18 S4"
_cell_length_a       8.319621618789544
_cell_length_b       8.376572785433062
_cell_length_c       8.571842976379253
_cell_angle_alpha    67.17155699486152
_cell_angle_beta     61.531343984397
_cell_angle_gamma    80.45788251676038

_space_group_name_H-M_alt    "P 1"
_space_group_IT_number       1

loop_
  _space_group_symop_operation_xyz
  'x, y, z'

loop_
  _atom_site_type_symbol
  _atom_site_label
  _atom_site_symmetry_multiplicity
  _atom_site_fract_x
  _atom_site_fract_y
  _atom_site_fract_z
  _atom_site_occupancy
  H   H1        1.0  0.1386792802195905  0.48553858341948974  0.6491683654332276  1.0000
  H   H2        1.0  0.8613207196201489  0.5144614160757611  0.3508316350058362  1.0000
  H   H3        1.0  0.3604276846433353  0.9867886476253862  0.2811196246313027  1.0000
  H   H4        1.0  0.6395723152269007  0.013211353165488497  0.7188803753015497  1.0000
  H   H5        1.0  0.7930924033945643  0.4722132484209278  0.962172136486763  1.0000
  H   H6        1.0  0.20690759647567178  0.5277867523699469  0.03782786344608912  1.0000
  H   H7        1.0  0.8772331468022371  0.6820265959353299  0.7847343870413357  1.0000
  H   H8        1.0  0.12276685306799892  0.3179734048555447  0.2152656128915165  1.0000
  H   H9        1.0  0.252739886336611  0.32183856504843095  0.8758556657079767  1.0000
  H   H10       1.0  0.7472601148704785  0.6781614344485821  0.12414433410202151  1.0000
  H   H11       1.0  0.015834076176882317  0.258084614258063  0.012724667638096782  1.0000
  H   H12       1.0  0.9841659236933537  0.7419153865328115  0.9872753322947556  1.0000
  H   H13       1.0  0.68513276940168  0.06439287096829693  0.1617444713719565  1.0000
  H   H14       1.0  0.3148672304685558  0.9356071298225777  0.8382555285608957  1.0000
  H   H15       1.0  0.657893569609155  0.8594949993927764  0.34903690109795804  1.0000
  H   H16       1.0  0.3421064302305842  0.14050500010247435  0.6509630993411059  1.0000
  H   H17       1.0  0.3622195977263872  0.7814497575538878  0.6209555036441872  1.0000
  H   H18       1.0  0.6377804034807023  0.21855024194312522  0.379044496165811  1.0000
  H   H19       1.0  0.1812352584129605  0.9329098102451308  0.6252423198917867  1.0000
  H   H20       1.0  0.8187647414621865  0.06709019054476625  0.3747576788725619  1.0000
  C   C1        1.0  0.8953942909955043  0.5755039155908207  0.8989807963711913  1.0000
  C   C2        1.0  0.10460570884914595  0.42449608390345256  0.10101920289936879  1.0000
  C   C3        1.0  0.1147819174612877  0.36382396142117307  0.9523538871559996  1.0000
  C   C4        1.0  0.8852180823784516  0.6361760380740779  0.04764611328306429  1.0000
  C   C5        1.0  0.6211261072771694  0.9965593278805955  0.31593138258004433  1.0000
  C   C6        1.0  0.37887389259306664  0.0034406729102790645  0.684068617352808  1.0000
  C   C7        1.0  0.32665104279956597  0.9187857536507288  0.5876100613078332  1.0000
  C   C8        1.0  0.6733489570401733  0.08121424584452228  0.4123899391312306  1.0000
  O   O1        1.0  0.4476514591648279  0.6566606877601007  0.3738447699528835  1.0000
  O   O2        1.0  0.5523485420422616  0.3433393117369124  0.6261552298571147  1.0000
  O   O3        1.0  0.196270313496515  0.4446254192097358  0.5239616719990475  1.0000
  O   O4        1.0  0.8037296863432242  0.5553745802855151  0.4760383284400163  1.0000
  O   O5        1.0  0.45474233815822157  0.4486078508727738  0.2276730623272442  1.0000
  O   O6        1.0  0.5452576630842755  0.5513921499188854  0.7723269358080387  1.0000
  O   O7        1.0  0.2487134780871524  0.687899319317868  0.2199035850278463  1.0000
  O   O8        1.0  0.7512865217525869  0.3121006801773829  0.7800964154112177  1.0000
  O   O9        1.0  0.3053156738556673  0.9882540939571427  0.18196280606677198  1.0000
  O   O10       1.0  0.6946843259840719  0.01174590553810838  0.8180371943722918  1.0000
  O   O11       1.0  0.05076126709532223  0.8130225944551047  0.47288311693242735  1.0000
  O   O12       1.0  0.9492387327444171  0.1869774050401463  0.5271168835066367  1.0000
  O   O13       1.0  0.04932725633916542  0.9185302203699384  0.1587548824097593  1.0000
  O   O14       1.0  0.950672743500574  0.08146977912531259  0.8412451180293046  1.0000
  O   O15       1.0  0.07778597737141735  0.5096011424874228  0.8116857994211507  1.0000
  O   O16       1.0  0.9222140224988187  0.49039885830345176  0.18831420051170153  1.0000
  O   O17       1.0  0.42402535441955813  0.008773699125837597  0.38285688236919885  1.0000
  O   O18       1.0  0.5759746454201811  0.9912263003694133  0.617143118069865  1.0000
  S   S1        1.0  0.3539289938276072  0.5517522299667706  0.34200854955250765  1.0000
  S   S2        1.0  0.6460710060121321  0.4482477695284802  0.6579914508865565  1.0000
  S   S3        1.0  0.1472428765932533  0.8621918222388614  0.269777307748198  1.0000
  S   S4        1.0  0.8527571232769826  0.13780817855201322  0.7302226921846541  1.0000
