data_image0
_chemical_formula_structural       H8C24N2O2F4I2
_chemical_formula_sum              "H8 C24 N2 O2 F4 I2"
_cell_length_a       4.1405676970053085
_cell_length_b       7.729381479789056
_cell_length_c       16.128924356713572
_cell_angle_alpha    91.85356569033499
_cell_angle_beta     90.59466804890754
_cell_angle_gamma    100.01366986924917

_space_group_name_H-M_alt    "P 1"
_space_group_IT_number       1

loop_
  _space_group_symop_operation_xyz
  'x, y, z'

loop_
  _atom_site_type_symbol
  _atom_site_label
  _atom_site_symmetry_multiplicity
  _atom_site_fract_x
  _atom_site_fract_y
  _atom_site_fract_z
  _atom_site_occupancy
  H   H1        1.0  0.04636305679415768  0.8330541775947824  0.8152153652703231  1.0000
  H   H2        1.0  0.9536369438433563  0.16694582285975557  0.18478463489802993  1.0000
  H   H3        1.0  0.48733328099325834  0.02042727462936073  0.929199026941292  1.0000
  H   H4        1.0  0.5126667196442556  0.9795727258251773  0.07080097322706115  1.0000
  H   H5        1.0  0.6540892495805865  0.09473684510718076  0.7855237229184561  1.0000
  H   H6        1.0  0.34591074863833654  0.9052631553367686  0.21447627724650994  1.0000
  H   H7        1.0  0.5508887140823415  0.3671533504867933  0.7223742269192037  1.0000
  H   H8        1.0  0.44911128655517246  0.6328466499677448  0.2776257732491494  1.0000
  C   C1        1.0  0.09169590574042906  0.713896443039972  0.8444736164990071  1.0000
  C   C2        1.0  0.9083040948970849  0.286103557414566  0.155526383669346  1.0000
  C   C3        1.0  0.985447650206655  0.6766245903017756  0.925900386966292  1.0000
  C   C4        1.0  0.014552348012268106  0.32337541014217375  0.07409961319867421  1.0000
  C   C5        1.0  0.04920357047164252  0.5236062353476691  0.9592477417505606  1.0000
  C   C6        1.0  0.9507964301658713  0.4763937651068689  0.04075225841779251  1.0000
  C   C7        1.0  0.2122431652876776  0.40884057258269224  0.9133729715180221  1.0000
  C   C8        1.0  0.7877568329312453  0.5911594278612571  0.08662702864694394  1.0000
  C   C9        1.0  0.2735729640238555  0.2523097416864418  0.9488361405389619  1.0000
  C   C10       1.0  0.7264270341950674  0.7476902587575076  0.05116385962600418  1.0000
  C   C11       1.0  0.4335390484495557  0.14034478144354437  0.9029910511035075  1.0000
  C   C12       1.0  0.5664609517805681  0.8596552176973165  0.09700894906565297  1.0000
  C   C13       1.0  0.5299935391221127  0.18476170688456847  0.8213499235639147  1.0000
  C   C14       1.0  0.4700064611080113  0.8152382922562923  0.17865007660524582  1.0000
  C   C15       1.0  0.47314333850225637  0.33693341399370286  0.785304937433338  1.0000
  C   C16       1.0  0.5268566621080503  0.6630665864135935  0.21469506211461414  1.0000
  C   C17       1.0  0.31097446714066745  0.45398774316238544  0.8314487001087453  1.0000
  C   C18       1.0  0.6890255330622491  0.5460122559312337  0.16855129944001435  1.0000
  C   C19       1.0  0.9549767622088102  0.08121728448240984  0.5752577121059652  1.0000
  C   C20       1.0  0.04502323840149636  0.9187827159248865  0.42474228744198683  1.0000
  C   C21       1.0  0.8124631633427345  0.904989236555954  0.5624253436993644  1.0000
  C   C22       1.0  0.1875368372947793  0.09501076389858397  0.4375746564689888  1.0000
  C   C23       1.0  0.8603409672133693  0.8252144578670019  0.4857313721535481  1.0000
  C   C24       1.0  0.1396590334241447  0.17478554258753623  0.514268628014805  1.0000
  N   N1        1.0  0.24742438801991765  0.6075553479332997  0.7998963303801807  1.0000
  N   N2        1.0  0.752575612590389  0.39244465247399657  0.20010366916777142  1.0000
  O   O1        1.0  0.8235848953269321  0.7900659204240602  0.9705221432497417  1.0000
  O   O2        1.0  0.17641510528337442  0.20993407998323596  0.029477856298210352  1.0000
  F   F1        1.0  0.9180052821673205  0.16581507207252918  0.6488398607856432  1.0000
  F   F2        1.0  0.08199471605160254  0.8341849283714201  0.351160139379323  1.0000
  F   F3        1.0  0.7275234704000477  0.6548013961603495  0.46926547785357  1.0000
  F   F4        1.0  0.2724765302374661  0.3451986042941886  0.5307345223147831  1.0000
  I   I1        1.0  0.5533132613600525  0.7626934160786121  0.6570520030102762  1.0000
  I   I2        1.0  0.446686738842864  0.237306583015007  0.3429479965384833  1.0000
