data_image0
_chemical_formula_structural       H36B4C16O8F16
_chemical_formula_sum              "H36 B4 C16 O8 F16"
_cell_length_a       7.493561522325247
_cell_length_b       11.72289990788444
_cell_length_c       8.565795003309088
_cell_angle_alpha    90.0
_cell_angle_beta     90.0
_cell_angle_gamma    90.0

_space_group_name_H-M_alt    "P 1"
_space_group_IT_number       1

loop_
  _space_group_symop_operation_xyz
  'x, y, z'

loop_
  _atom_site_type_symbol
  _atom_site_label
  _atom_site_symmetry_multiplicity
  _atom_site_fract_x
  _atom_site_fract_y
  _atom_site_fract_z
  _atom_site_occupancy
  H   H1        1.0  0.34475092415046577  0.25000000025837377  0.45981217720928896  1.0000
  H   H2        1.0  0.1552490770288635  0.7499999999220901  0.9598121770161319  1.0000
  H   H3        1.0  0.8447509239953163  0.25000000025837377  0.04018782259755399  1.0000
  H   H4        1.0  0.6552490768737139  0.7499999999220901  0.5401878235718309  1.0000
  H   H5        1.0  0.24609632609351895  0.031112138879109446  0.5351960650738186  1.0000
  H   H6        1.0  0.25390367375133144  0.9688878613013545  0.035196065266975586  1.0000
  H   H7        1.0  0.7460963259383694  0.4688878616376382  0.9648039343467102  1.0000
  H   H8        1.0  0.7539036735961818  0.5311121385428258  0.46480393453986735  1.0000
  H   H9        1.0  0.7539036735961818  0.9688878613013545  0.46480393453986735  1.0000
  H   H10       1.0  0.7460963259383694  0.031112138879109446  0.9648039343467102  1.0000
  H   H11       1.0  0.25390367375133144  0.5311121385428258  0.035196065266975586  1.0000
  H   H12       1.0  0.24609632609351895  0.4688878616376382  0.5351960650738186  1.0000
  H   H13       1.0  0.33970290527622266  0.08680021138077182  0.7119309973731753  1.0000
  H   H14       1.0  0.16029709590310665  0.913199788799692  0.21193099756633235  1.0000
  H   H15       1.0  0.839702905121073  0.4131997882829445  0.7880690020473535  1.0000
  H   H16       1.0  0.6602970957479571  0.5868002110444881  0.2880690022405106  1.0000
  H   H17       1.0  0.6602970957479571  0.913199788799692  0.2880690022405106  1.0000
  H   H18       1.0  0.839702905121073  0.08680021138077182  0.7880690020473535  1.0000
  H   H19       1.0  0.16029709590310665  0.5868002110444881  0.21193099756633235  1.0000
  H   H20       1.0  0.33970290527622266  0.4131997882829445  0.7119309973731753  1.0000
  H   H21       1.0  0.6297805957741179  0.12836452173304982  0.3135055402286166  1.0000
  H   H22       1.0  0.8702194037604332  0.8716354784474141  0.8135055400354595  1.0000
  H   H23       1.0  0.12978059592926758  0.37163547878369774  0.18649445957822636  1.0000
  H   H24       1.0  0.37021940391558283  0.6283645213967661  0.6864944593850693  1.0000
  H   H25       1.0  0.37021940391558283  0.8716354784474141  0.6864944593850693  1.0000
  H   H26       1.0  0.12978059592926758  0.12836452173304982  0.18649445957822636  1.0000
  H   H27       1.0  0.8702194037604332  0.6283645213967661  0.8135055400354595  1.0000
  H   H28       1.0  0.6297805957741179  0.37163547878369774  0.3135055402286166  1.0000
  H   H29       1.0  0.4196494111152919  0.057163367022292744  0.2951578527180836  1.0000
  H   H30       1.0  0.08035058872955848  0.9428366331581711  0.7951578525249265  1.0000
  H   H31       1.0  0.9196494109601422  0.44283663349445485  0.20484214708875934  1.0000
  H   H32       1.0  0.5803505885744089  0.5571633666860091  0.7048421468956023  1.0000
  H   H33       1.0  0.5803505885744089  0.9428366331581711  0.7048421468956023  1.0000
  H   H34       1.0  0.9196494109601422  0.057163367022292744  0.20484214708875934  1.0000
  H   H35       1.0  0.08035058872955848  0.5571633666860091  0.7951578525249265  1.0000
  H   H36       1.0  0.4196494111152919  0.44283663349445485  0.2951578527180836  1.0000
  B   B1        1.0  0.015779084437717375  0.25000000025837377  0.5437229793849576  1.0000
  B   B2        1.0  0.484220915407133  0.7499999999220901  0.043722978410680714  1.0000
  B   B3        1.0  0.5157790842825678  0.25000000025837377  0.9562770212030052  1.0000
  B   B4        1.0  0.9842209152519834  0.7499999999220901  0.4562770213961622  1.0000
  C   C1        1.0  0.3709123240957309  0.04469302340862098  0.6008911499763417  1.0000
  C   C2        1.0  0.12908767574911953  0.9553069759188118  0.10089115016949884  1.0000
  C   C3        1.0  0.8709123239405813  0.45530697625509536  0.899108850611621  1.0000
  C   C4        1.0  0.6290876755939699  0.5446930239253686  0.39910884963734405  1.0000
  C   C5        1.0  0.6290876755939699  0.9553069759188118  0.39910884963734405  1.0000
  C   C6        1.0  0.8709123239405813  0.04469302340862098  0.899108850611621  1.0000
  C   C7        1.0  0.12908767574911953  0.5446930239253686  0.10089115016949884  1.0000
  C   C8        1.0  0.3709123240957309  0.45530697625509536  0.6008911499763417  1.0000
  C   C9        1.0  0.5378696202055495  0.06869267300136178  0.37044054740677074  1.0000
  C   C10       1.0  0.9621303793290016  0.9313073271791021  0.8704405483810476  1.0000
  C   C11       1.0  0.03786962036069917  0.43130732666235455  0.1295594524000722  1.0000
  C   C12       1.0  0.4621303794841512  0.5686926735181094  0.6295594522069152  1.0000
  C   C13       1.0  0.4621303794841512  0.9313073271791021  0.6295594522069152  1.0000
  C   C14       1.0  0.03786962036069917  0.06869267300136178  0.1295594524000722  1.0000
  C   C15       1.0  0.9621303793290016  0.5686926735181094  0.8704405483810476  1.0000
  C   C16       1.0  0.5378696202055495  0.43130732666235455  0.37044054740677074  1.0000
  O   O1        1.0  0.4849594894461278  0.12148508058506567  0.5151676765898863  1.0000
  O   O2        1.0  0.015040510398722545  0.878514918742367  0.015167675615609388  1.0000
  O   O3        1.0  0.9849594892909782  0.37851491907865065  0.9848323239980764  1.0000
  O   O4        1.0  0.5150405102435729  0.6214850811018132  0.48483232419123357  1.0000
  O   O5        1.0  0.5150405102435729  0.878514918742367  0.48483232419123357  1.0000
  O   O6        1.0  0.9849594892909782  0.12148508058506567  0.9848323239980764  1.0000
  O   O7        1.0  0.015040510398722545  0.6214850811018132  0.015167675615609388  1.0000
  O   O8        1.0  0.4849594894461278  0.37851491907865065  0.5151676765898863  1.0000
  F   F1        1.0  0.22746643167227704  0.25000000025837377  0.40572748339849507  1.0000
  F   F2        1.0  0.2725335681725733  0.7499999999220901  0.905727484372772  1.0000
  F   F3        1.0  0.7274664315171274  0.25000000025837377  0.09427251640834786  1.0000
  F   F4        1.0  0.7725335680174238  0.7499999999220901  0.5942725162151907  1.0000
  F   F5        1.0  0.10167519112641916  0.25000000025837377  0.6812227443857546  1.0000
  F   F6        1.0  0.3983248087184312  0.7499999999220901  0.18122274341147765  1.0000
  F   F7        1.0  0.6016751909712695  0.25000000025837377  0.8187772562022083  1.0000
  F   F8        1.0  0.8983248085632816  0.7499999999220901  0.3187772563953653  1.0000
  F   F9        1.0  0.9453440448703813  0.15141819719932542  0.49208960853856903  1.0000
  F   F10       1.0  0.55465595466417  0.8485818021281072  0.992089608345412  1.0000
  F   F11       1.0  0.4453440450255309  0.34858180246439086  0.007910391268273852  1.0000
  F   F12       1.0  0.054655954819319535  0.651418197716073  0.5079103910751168  1.0000
  F   F13       1.0  0.054655954819319535  0.8485818021281072  0.5079103910751168  1.0000
  F   F14       1.0  0.4453440450255309  0.15141819719932542  0.007910391268273852  1.0000
  F   F15       1.0  0.55465595466417  0.651418197716073  0.992089608345412  1.0000
  F   F16       1.0  0.9453440448703813  0.34858180246439086  0.49208960853856903  1.0000
