data_image0
_chemical_formula_structural       H88C64N20O20S8
_chemical_formula_sum              "H88 C64 N20 O20 S8"
_cell_length_a       10.875559465093641
_cell_length_b       8.936492354099794
_cell_length_c       20.71455077679963
_cell_angle_alpha    90.0
_cell_angle_beta     103.71689667822803
_cell_angle_gamma    90.0

_space_group_name_H-M_alt    "P 1"
_space_group_IT_number       1

loop_
  _space_group_symop_operation_xyz
  'x, y, z'

loop_
  _atom_site_type_symbol
  _atom_site_label
  _atom_site_symmetry_multiplicity
  _atom_site_fract_x
  _atom_site_fract_y
  _atom_site_fract_z
  _atom_site_occupancy
  H   H1        1.0  0.4453244151578143  0.3892115275412632  0.49039497431610474  1.0000
  H   H2        1.0  0.05467558522756952  0.8892115267523745  0.009605025541040499  1.0000
  H   H3        1.0  0.5546755846672203  0.6107884731189741  0.5096050257635835  1.0000
  H   H4        1.0  0.9453244145974653  0.11078847278885547  0.9903949745386478  1.0000
  H   H5        1.0  0.4681495821818475  0.1987496502680011  0.48150253423766737  1.0000
  H   H6        1.0  0.03185041820353625  0.6987496505981197  0.01849746561947789  1.0000
  H   H7        1.0  0.5318504176424329  0.8012503492732289  0.5184974653591747  1.0000
  H   H8        1.0  0.9681495825679857  0.30125035006211753  0.9815025345776589  1.0000
  H   H9        1.0  0.7822359292983371  0.7264739970399691  0.48449750621582  1.0000
  H   H10       1.0  0.7177640703879743  0.22647399782885766  0.01550249410971336  1.0000
  H   H11       1.0  0.21776407052669763  0.27352600250126097  0.5155024938638683  1.0000
  H   H12       1.0  0.28223592943706044  0.7735260028313796  0.9844975059699749  1.0000
  H   H13       1.0  0.9325916193718115  0.6386157156372216  0.49014151964904323  1.0000
  H   H14       1.0  0.5674083812602329  0.13861571642611029  0.009858480311092413  1.0000
  H   H15       1.0  0.06740838139971043  0.36138428390400834  0.5098584805480936  1.0000
  H   H16       1.0  0.4325916185648019  0.861384284234127  0.9901415197685958  1.0000
  H   H17       1.0  0.9584759147138867  0.2781931379216662  0.7232059720906536  1.0000
  H   H18       1.0  0.5415240854965317  0.7781931382517849  0.7767940278461798  1.0000
  H   H19       1.0  0.04152408511114804  0.7218068616195638  0.2767940279890346  1.0000
  H   H20       1.0  0.45847591527499  0.2218068624084524  0.22320597235095685  1.0000
  H   H21       1.0  0.07423349788285746  0.1936655850442272  0.8343129062425422  1.0000
  H   H22       1.0  0.42576650208090056  0.6936655853743458  0.665687093591301  1.0000
  H   H23       1.0  0.9257665019421772  0.8063344144970027  0.16568709383714597  1.0000
  H   H24       1.0  0.5742334977441341  0.3063344141668841  0.33431290648838735  1.0000
  H   H25       1.0  0.22678501080069213  0.9784441404449453  0.8455300660592076  1.0000
  H   H26       1.0  0.2732149891630659  0.4784441401148267  0.6544699337746357  1.0000
  H   H27       1.0  0.7732149890235883  0.0215558602152919  0.15446993353763466  1.0000
  H   H28       1.0  0.7267850106619688  0.5215558594264033  0.3455300663050525  1.0000
  H   H29       1.0  0.26246543981361825  0.8550738922183906  0.7428112281964537  1.0000
  H   H30       1.0  0.23753456015013977  0.355073891888272  0.7571887716373894  1.0000
  H   H31       1.0  0.7375345600114165  0.14492610732283934  0.25718877188323447  1.0000
  H   H32       1.0  0.7624654396741406  0.644926107652958  0.2428112279594527  1.0000
  H   H33       1.0  0.6960105586691931  0.23361851465605654  0.6939894179084201  1.0000
  H   H34       1.0  0.8039894405954924  0.7336185149861751  0.8060105823938112  1.0000
  H   H35       1.0  0.3039894411558416  0.7663814860041808  0.3060105821712682  1.0000
  H   H36       1.0  0.1960105592295422  0.2663814856740621  0.19398941768587705  1.0000
  H   H37       1.0  0.6615261572554306  0.2413544436157321  0.604432002859607  1.0000
  H   H38       1.0  0.8384738429549878  0.7413544439458507  0.8955679970772265  1.0000
  H   H39       1.0  0.33847384256884977  0.7586455559254979  0.3955679967372351  1.0000
  H   H40       1.0  0.16152615687004687  0.25864555671438655  0.10443200300246173  1.0000
  H   H41       1.0  0.7712058856866353  0.10414336331558921  0.6479052896979878  1.0000
  H   H42       1.0  0.7287941145237832  0.6041433636457079  0.8520947102388456  1.0000
  H   H43       1.0  0.22879411413839945  0.8958566362256407  0.3520947103817004  1.0000
  H   H44       1.0  0.27120588530125145  0.39585663701452944  0.14790528984084259  1.0000
  H   H45       1.0  0.3528852672207782  0.09812666259348399  0.6487869960401715  1.0000
  H   H46       1.0  0.14711473274297987  0.5981266629236026  0.8512130037936718  1.0000
  H   H47       1.0  0.6471147335507437  0.901873336947746  0.3512130041569652  1.0000
  H   H48       1.0  0.8528852670820548  0.40187333661762736  0.1487869962860166  1.0000
  H   H49       1.0  0.41985126284034785  0.2353128516956953  0.6041501376229687  1.0000
  H   H50       1.0  0.0801487371234102  0.7353128509068066  0.8958498622108743  1.0000
  H   H51       1.0  0.5801487369839325  0.7646871489645419  0.3958498619738733  1.0000
  H   H52       1.0  0.9198512636481117  0.26468714863442333  0.10415013798626227  1.0000
  H   H53       1.0  0.46716897952411574  0.23106785058151694  0.6938908269549913  1.0000
  H   H54       1.0  0.03283102043964234  0.7310678509116356  0.8061091728788519  1.0000
  H   H55       1.0  0.5328310203009189  0.7689321489597131  0.30610917312469693  1.0000
  H   H56       1.0  0.9671689793853924  0.2689321486295944  0.1938908272008364  1.0000
  H   H57       1.0  0.8439127041085357  0.19231986241352605  0.8323053287934432  1.0000
  H   H58       1.0  0.6560872951553957  0.6923198627436447  0.6676946710259418  1.0000
  H   H59       1.0  0.15608729571649907  0.8076801371277039  0.16769467128624507  1.0000
  H   H60       1.0  0.34391270466888474  0.3076801379165926  0.33230532857090017  1.0000
  H   H61       1.0  0.7423379369534107  0.035548334560400435  0.8009324288715628  1.0000
  H   H62       1.0  0.7576620632570077  0.5355483348905191  0.6990675710652705  1.0000
  H   H63       1.0  0.2576620638181111  0.9644516649808295  0.19906757132557382  1.0000
  H   H64       1.0  0.24233793656727268  0.46445166576971814  0.3009324285315714  1.0000
  H   H65       1.0  0.7796407142235233  0.07945304173781997  0.8891095564417644  1.0000
  H   H66       1.0  0.7203592859868951  0.5794530409489314  0.6108904434950689  1.0000
  H   H67       1.0  0.22035928560151136  0.9205469589224172  0.11089044363792377  1.0000
  H   H68       1.0  0.27964071383813954  0.4205469585922987  0.38910955658461915  1.0000
  H   H69       1.0  0.5488208320962132  0.06790562627422837  0.8895233356944392  1.0000
  H   H70       1.0  0.9511791681142052  0.5679056266043471  0.6104766642423942  1.0000
  H   H71       1.0  0.45117916772882144  0.9320943732670016  0.110476664385249  1.0000
  H   H72       1.0  0.048820831710075174  0.43209437405589024  0.3895233353544478  1.0000
  H   H73       1.0  0.502711201424222  0.02827632923381542  0.8011727269623866  1.0000
  H   H74       1.0  0.9972887987861965  0.528276329563934  0.6988272729744467  1.0000
  H   H75       1.0  0.4972887984008127  0.9717236703074147  0.19882727311730156  1.0000
  H   H76       1.0  0.0027112010388382073  0.471723669977296  0.30117272710524146  1.0000
  H   H77       1.0  0.42644828674475077  0.17618697220477894  0.8360285925176548  1.0000
  H   H78       1.0  0.0735517132190073  0.6761869725348976  0.6639714073161885  1.0000
  H   H79       1.0  0.5735517130795297  0.8238130273364511  0.1639714070791874  1.0000
  H   H80       1.0  0.9264482866060275  0.32381302700633247  0.3360285927634998  1.0000
  H   H81       1.0  0.6841027318409284  0.0039002607084433673  0.4945497600360867  1.0000
  H   H82       1.0  0.8158972687911158  0.503900261038562  0.005450239924048916  1.0000
  H   H83       1.0  0.3158972679841062  0.9960997388327867  0.5054502400436015  1.0000
  H   H84       1.0  0.1841027319796518  0.496099738502668  0.9945497597902415  1.0000
  H   H85       1.0  0.7438495057425039  0.8878304009693555  0.5511124478462542  1.0000
  H   H86       1.0  0.7561504944686689  0.38783040063923685  0.9488875525734255  1.0000
  H   H87       1.0  0.2561504940825308  0.11216959857187454  0.44888755223343396  1.0000
  H   H88       1.0  0.2438495053563658  0.6121695989019932  0.05111244750626279  1.0000
  C   C1        1.0  0.9141584943195314  0.11789223089489537  0.4936657466435891  1.0000
  C   C2        1.0  0.5858415063132671  0.617892231225014  0.006334253799392723  1.0000
  C   C3        1.0  0.08584150645199047  0.8821077686463346  0.5063342535535476  1.0000
  C   C4        1.0  0.4141584935117676  0.38210776831621596  0.9936657462802956  1.0000
  C   C5        1.0  0.9926079795376126  0.08418844667335777  0.5557185938865871  1.0000
  C   C6        1.0  0.5073920206728059  0.5841884470034764  0.9442814060502462  1.0000
  C   C7        1.0  0.007392020287422107  0.9158115528678721  0.44428140619310114  1.0000
  C   C8        1.0  0.49260797915147453  0.41581155365676087  0.055718593546595654  1.0000
  C   C9        1.0  0.04629556936837322  0.1169104038365446  0.671274507445672  1.0000
  C   C10       1.0  0.453704430596139  0.6169104041666633  0.8287254928710173  1.0000
  C   C11       1.0  0.9537044304566614  0.8830895957046854  0.3287254926340163  1.0000
  C   C12       1.0  0.5462955692288956  0.38308959649357405  0.17127450720867088  1.0000
  C   C13       1.0  0.02529672431610016  0.18593204516509398  0.7277717143356781  1.0000
  C   C14       1.0  0.47470327564765785  0.6859320454952126  0.772228285498165  1.0000
  C   C15       1.0  0.9747032755081803  0.814067954376136  0.2722282852611639  1.0000
  C   C16       1.0  0.5252967241773768  0.31406795516502467  0.22777171458152326  1.0000
  C   C17       1.0  0.09059863217306316  0.13662976720836628  0.7906636591640837  1.0000
  C   C18       1.0  0.40940136779144914  0.6366297664194777  0.7093363411526058  1.0000
  C   C19       1.0  0.9094013676519715  0.863370233451871  0.20933634091560463  1.0000
  C   C20       1.0  0.5905986320335855  0.3633702331217524  0.29066365892708246  1.0000
  C   C21       1.0  0.17579420461325812  0.01788284079118403  0.7967943124496176  1.0000
  C   C22       1.0  0.3242057953504999  0.5178828411213027  0.7032056873842256  1.0000
  C   C23       1.0  0.8242057952117766  0.9821171587500459  0.20320568763007063  1.0000
  C   C24       1.0  0.6757942044745348  0.48211715953893464  0.2967943126954627  1.0000
  C   C25       1.0  0.1965236033987601  0.9480729702759826  0.739867294691499  1.0000
  C   C26       1.0  0.303476396564998  0.448072969945864  0.7601327051423441  1.0000
  C   C27       1.0  0.8034763964262746  0.051927029265247435  0.2601327053881892  1.0000
  C   C28       1.0  0.6965236042065239  0.551927029595366  0.2398672950547926  1.0000
  C   C29       1.0  0.1321223156885733  0.9981129895901429  0.6774855490013634  1.0000
  C   C30       1.0  0.3678776842751847  0.4981129892600243  0.8225144508324799  1.0000
  C   C31       1.0  0.8678776850829485  0.0018870099510870891  0.32251445119577327  1.0000
  C   C32       1.0  0.6321223155490957  0.5018870102812056  0.17748554876436232  1.0000
  C   C33       1.0  0.07798848157729978  0.9661588112968001  0.5618773288647896  1.0000
  C   C34       1.0  0.42201151838721246  0.46615881096668144  0.9381226714518998  1.0000
  C   C35       1.0  0.922011519194222  0.03384118936343722  0.43812267133234706  1.0000
  C   C36       1.0  0.5779884814378221  0.5338411885745485  0.06187732862778851  1.0000
  C   C37       1.0  0.8231108758590048  0.24407428704388087  0.4870736108532726  1.0000
  C   C38       1.0  0.6768891247730394  0.7440742873739995  0.012926389106863025  1.0000
  C   C39       1.0  0.1768891249117628  0.7559257124973492  0.5129263888610179  1.0000
  C   C40       1.0  0.3231108750519952  0.25592571328623775  0.9870736109728251  1.0000
  C   C41       1.0  0.788877046660261  0.49454932258431905  0.48517026794216817  1.0000
  C   C42       1.0  0.711122953025296  0.9945493229144378  0.01482973190051897  1.0000
  C   C43       1.0  0.21112295316477364  0.5054506769569109  0.51482973213752  1.0000
  C   C44       1.0  0.2888770467989844  0.005450676626792317  0.985170267696323  1.0000
  C   C45       1.0  0.6246358849821705  0.33064220870109456  0.48141474641469795  1.0000
  C   C46       1.0  0.8753641147033866  0.8306422090312132  0.018585253427989244  1.0000
  C   C47       1.0  0.37536411484210985  0.6693577919591428  0.5185852531821441  1.0000
  C   C48       1.0  0.1246358851216482  0.1693577916290241  0.981414746651699  1.0000
  C   C49       1.0  0.6856811156173955  0.16857342123824273  0.6481315538056975  1.0000
  C   C50       1.0  0.8143188845930229  0.6685734215683613  0.8518684461311359  1.0000
  C   C51       1.0  0.3143188842076391  0.8314265783029873  0.35186844627399066  1.0000
  C   C52       1.0  0.18568111523201175  0.33142657909187595  0.1481315539485523  1.0000
  C   C53       1.0  0.4375607835655875  0.1641620136704945  0.6485049441662931  1.0000
  C   C54       1.0  0.06243921639892483  0.6641620140006131  0.8514950561503963  1.0000
  C   C55       1.0  0.5624392172059344  0.8358379858707355  0.3514950560308436  1.0000
  C   C56       1.0  0.9375607834261098  0.3358379866596241  0.148504943929292  1.0000
  C   C57       1.0  0.7635626562310263  0.12447115556359133  0.8385449068492508  1.0000
  C   C58       1.0  0.7364373439801466  0.6244711558937099  0.661455093570429  1.0000
  C   C59       1.0  0.2364373445404957  0.8755288439776386  0.16145509334788602  1.0000
  C   C60       1.0  0.26356265584488814  0.37552884364752004  0.3385449065092592  1.0000
  C   C61       1.0  0.5150372004648202  0.11502160011678801  0.8396502535834215  1.0000
  C   C62       1.0  0.9849627997455983  0.6150215993278993  0.660349746353412  1.0000
  C   C63       1.0  0.4849628003067017  0.8849784005434493  0.16034974661371523  1.0000
  C   C64       1.0  0.015037200079436342  0.38497840021333063  0.3396502537262762  1.0000
  N   N1        1.0  0.7014954915773037  0.2094956886681731  0.48122755160324804  1.0000
  N   N2        1.0  0.7985045081090076  0.7094956878792844  0.01877244872228538  1.0000
  N   N3        1.0  0.29850450824773095  0.7905043119920642  0.5187724484764403  1.0000
  N   N4        1.0  0.2014954917160271  0.2905043116619455  0.9812275513574028  1.0000
  N   N5        1.0  0.6651836680532249  0.47448438514633895  0.4836202363298228  1.0000
  N   N6        1.0  0.8348163316323323  0.9744843854764577  0.016379763512864336  1.0000
  N   N7        1.0  0.33481633177105546  0.525515614394891  0.5163797632670193  1.0000
  N   N8        1.0  0.16518366819270253  0.02551561518377971  0.9836202365668237  1.0000
  N   N9        1.0  0.8736821444503451  0.3798201582349942  0.48907075906142095  1.0000
  N   N10       1.0  0.626317855235212  0.8798201585651129  0.010929240781266182  1.0000
  N   N11       1.0  0.12631785537468962  0.6201798413062358  0.5109292410182673  1.0000
  N   N12       1.0  0.37368214458982263  0.12017984097611714  0.9890707592984219  1.0000
  N   N13       1.0  0.5036241738613305  0.3048022660423777  0.48071333704560065  1.0000
  N   N14       1.0  0.9963758267707136  0.8048022652534891  0.01928666291453488  1.0000
  N   N15       1.0  0.49637582691019144  0.6951977346178596  0.5192866631515359  1.0000
  N   N16       1.0  0.0036241740000538428  0.19519773428774093  0.9807133367997557  1.0000
  N   N17       1.0  0.8358800086781105  0.6323060252390498  0.4833214682363512  1.0000
  N   N18       1.0  0.6641199910074467  0.13230602490893115  0.016678531606335964  1.0000
  N   N19       1.0  0.16411999114617  0.36769397542118754  0.5166785313604909  1.0000
  N   N20       1.0  0.33588000881758806  0.8676939746322988  0.9833214684733522  1.0000
  O   O1        1.0  0.9805040930939488  0.16890602377201386  0.6096660122367349  1.0000
  O   O2        1.0  0.5194959071172238  0.6689060241021325  0.8903339881829446  1.0000
  O   O3        1.0  0.019495907677572966  0.8310939757692162  0.39033398796040175  1.0000
  O   O4        1.0  0.48050409270781086  0.3310939754390975  0.1096660118967435  1.0000
  O   O5        1.0  0.15636496570186267  0.9266725591949769  0.6222682541844211  1.0000
  O   O6        1.0  0.34363503426189534  0.4266725588648582  0.8777317456494219  1.0000
  O   O7        1.0  0.8436350341224178  0.07332744146526042  0.37773174541242094  1.0000
  O   O8        1.0  0.6563649655631393  0.5733274406763718  0.12226825443026622  1.0000
  O   O9        1.0  0.593061448682528  0.9460209940336947  0.7073124519838473  1.0000
  O   O10       1.0  0.9069385515286447  0.446020993703576  0.7926875484358324  1.0000
  O   O11       1.0  0.4069385511425067  0.05397900662654259  0.29268754809584097  1.0000
  O   O12       1.0  0.09306144829638986  0.5539790058376539  0.20731245164385587  1.0000
  O   O13       1.0  0.6500012740805807  0.36421303583466963  0.8765190245389389  1.0000
  O   O14       1.0  0.8499987251841048  0.8642130361647883  0.6234809757632922  1.0000
  O   O15       1.0  0.3499987257444539  0.6357869637065603  0.12348097554074915  1.0000
  O   O16       1.0  0.15000127464092985  0.1357869633764417  0.3765190243163961  1.0000
  O   O17       1.0  0.6857419626651879  0.8958040932388183  0.5061312086459167  1.0000
  O   O18       1.0  0.8142580375452305  0.3958040929086997  0.9938687912909168  1.0000
  O   O19       1.0  0.31425803810633396  0.10419590742141889  0.49386879155122  1.0000
  O   O20       1.0  0.18574196227980413  0.6041959077515375  0.00613120878877144  1.0000
  S   S1        1.0  0.5609165272914034  0.03322522285422014  0.6427756169036084  1.0000
  S   S2        1.0  0.9390834729190152  0.5332252231843388  0.8572243830332251  1.0000
  S   S3        1.0  0.43908347348011845  0.9667747766870098  0.35722438329352824  1.0000
  S   S4        1.0  0.06091652690526541  0.4667747763568912  0.142775616563617  1.0000
  S   S5        1.0  0.6284066874545422  0.2465840637114243  0.8222123813628496  1.0000
  S   S6        1.0  0.8715933127558763  0.7465840629225357  0.677787618573984  1.0000
  S   S7        1.0  0.37159331331697976  0.7534159369488129  0.17778761883428718  1.0000
  S   S8        1.0  0.12840668706840408  0.2534159366186943  0.32221238102285804  1.0000
