data_image0
_chemical_formula_structural       H76C60N16O13S10Cl4
_chemical_formula_sum              "H76 C60 N16 O13 S10 Cl4"
_cell_length_a       10.050982582986657
_cell_length_b       13.290136656162439
_cell_length_c       14.710343362508675
_cell_angle_alpha    77.66925782846643
_cell_angle_beta     90.24554093858862
_cell_angle_gamma    80.3950725612875

_space_group_name_H-M_alt    "P 1"
_space_group_IT_number       1

loop_
  _space_group_symop_operation_xyz
  'x, y, z'

loop_
  _atom_site_type_symbol
  _atom_site_label
  _atom_site_symmetry_multiplicity
  _atom_site_fract_x
  _atom_site_fract_y
  _atom_site_fract_z
  _atom_site_occupancy
  H   H1        1.0  0.26672797081780963  0.8235229458555449  0.59921745364206  1.0000
  H   H2        1.0  0.164073323160496  0.8946462219462908  0.43975374277769835  1.0000
  H   H3        1.0  0.8878169842208135  0.1234267675969814  0.5442906099334298  1.0000
  H   H4        1.0  0.9951668004170274  0.05616690607185436  0.7021593121413647  1.0000
  H   H5        1.0  0.4134959969135118  0.5850813260618777  0.8915416946732508  1.0000
  H   H6        1.0  0.6453213043668662  0.48345223505226276  0.9564434405564244  1.0000
  H   H7        1.0  0.5649856094489956  0.5660321561239577  0.026736378931224564  1.0000
  H   H8        1.0  0.6978841148690663  0.6052888820285334  0.9542688823802145  1.0000
  H   H9        1.0  0.7530023928215963  0.5463060507324407  0.6509422060747019  1.0000
  H   H10       1.0  0.7745811466232854  0.5726944147745907  0.469752409162724  1.0000
  H   H11       1.0  0.501770125162472  0.7968529246395865  0.1839151409393923  1.0000
  H   H12       1.0  0.7392957877522527  0.7562935831549882  0.13359195691668294  1.0000
  H   H13       1.0  0.617369040424661  0.7440878819496436  0.05089441960717948  1.0000
  H   H14       1.0  0.7111236391180341  0.6298622312936011  0.12443162915410301  1.0000
  H   H15       1.0  0.9091527220964772  0.813082427302012  0.2567716385802051  1.0000
  H   H16       1.0  0.7755572282191867  0.8555083309234596  0.38766350768408775  1.0000
  H   H17       1.0  0.07945634824891419  0.6539534476281323  0.5829983270343921  1.0000
  H   H18       1.0  0.21263655158681946  0.6099983358839711  0.4510365191122021  1.0000
  H   H19       1.0  0.27002356274460904  0.8214330607458326  0.749885177274462  1.0000
  H   H20       1.0  0.29820191710175226  0.8955737020399369  0.9588989311218364  1.0000
  H   H21       1.0  0.2780249003188022  0.71496907774909  0.9086431913971036  1.0000
  H   H22       1.0  0.6480059775726108  0.5469416759689957  0.7939661785561353  1.0000
  H   H23       1.0  0.7060860694839547  0.6454907177698059  0.30117119618553834  1.0000
  H   H24       1.0  0.31896249683040684  0.7861431713884728  0.117701777782275  1.0000
  H   H25       1.0  0.19519808398044958  0.6407154064891856  0.0664087857931772  1.0000
  H   H26       1.0  0.25739466251202636  0.6995591710215028  0.2843362831116034  1.0000
  H   H27       1.0  0.5245384780089823  0.4136398311092296  0.5307540343195147  1.0000
  H   H28       1.0  0.40778853178030305  0.35624348884370455  0.40670221672766266  1.0000
  H   H29       1.0  0.22320941763757168  0.14967124730851855  0.61695574874862  1.0000
  H   H30       1.0  0.3409731545366541  0.20510019269945065  0.7398348341564318  1.0000
  H   H31       1.0  0.9168458141893808  0.20291950908300302  0.8268200331130389  1.0000
  H   H32       1.0  0.13470456866058797  0.24236767360789696  0.882584698293007  1.0000
  H   H33       1.0  0.005253907816003373  0.25165955207546875  0.963252671365152  1.0000
  H   H34       1.0  0.04904275188562852  0.368075176083469  0.8934939538141164  1.0000
  H   H35       1.0  0.09318181171547721  0.43776464549493393  0.5422598736180542  1.0000
  H   H36       1.0  0.053602342847842266  0.46682680331054843  0.360410976907002  1.0000
  H   H37       1.0  0.729808179919602  0.41783178872090393  0.1241131443884596  1.0000
  H   H38       1.0  0.904738219268094  0.5215395087165405  0.05113337232152207  1.0000
  H   H39       1.0  0.8751845740954382  0.42854866412241255  0.9863316909963806  1.0000
  H   H40       1.0  0.022497766238556136  0.40444505173125395  0.060613776924551784  1.0000
  H   H41       1.0  0.5203160553765616  0.9439546120635312  0.3131985063423985  1.0000
  H   H42       1.0  0.4523999104805269  0.8754560017545906  0.4730217315241396  1.0000
  H   H43       1.0  0.6096878736189816  0.1177583217396156  0.5697991845352355  1.0000
  H   H44       1.0  0.6737411702590697  0.18847091457882303  0.40905616713029175  1.0000
  H   H45       1.0  0.6209199688374137  0.3340244873276745  0.7009469655871489  1.0000
  H   H46       1.0  0.530971595621705  0.36221796841338183  0.9293604010253512  1.0000
  H   H47       1.0  0.7162170226856841  0.22011830170355448  0.883779422502843  1.0000
  H   H48       1.0  0.06489070263705823  0.3535656743466753  0.7185303879217896  1.0000
  H   H49       1.0  0.9520698917476245  0.4561664136717151  0.21770096291882537  1.0000
  H   H50       1.0  0.6496016709368281  0.2885386781727233  0.09985355274879558  1.0000
  H   H51       1.0  0.7459825205233869  0.10991427652497002  0.053459187494462296  1.0000
  H   H52       1.0  0.684413902803626  0.18313400682894507  0.26198141273199294  1.0000
  H   H53       1.0  0.6769959454830005  0.09037193951352611  0.7566842777982454  1.0000
  H   H54       1.0  0.6739437918102197  0.951946851648402  0.7730967014505407  1.0000
  H   H55       1.0  0.8315991011232078  0.9974492982762098  0.7816679842221546  1.0000
  H   H56       1.0  0.5008138038186246  0.025255438585441343  0.9912577228674458  1.0000
  H   H57       1.0  0.48418262342484  0.9745760757927648  0.8887119328526936  1.0000
  H   H58       1.0  0.4931945837262875  0.11181525405592407  0.876937810037215  1.0000
  H   H59       1.0  0.28030286629825607  0.24431966712148281  0.00538710151591889  1.0000
  H   H60       1.0  0.1957234589905223  0.24085201322975117  0.1131625193740909  1.0000
  H   H61       1.0  0.36973573084901157  0.17607133093610727  0.11333341875493204  1.0000
  H   H62       1.0  0.4366846678698189  0.2567605517502476  0.2367475951312834  1.0000
  H   H63       1.0  0.2753147362758336  0.3370774023197045  0.24162145544265962  1.0000
  H   H64       1.0  0.4244501080159227  0.39677631093381255  0.22836569999194126  1.0000
  H   H65       1.0  0.010093841293514755  0.9737992625222884  0.01734171330600541  1.0000
  H   H66       1.0  0.9648521790674145  0.019283627717926115  0.12148307185570834  1.0000
  H   H67       1.0  0.044258406771097644  0.8845345907350689  0.13017960500801762  1.0000
  H   H68       1.0  0.20964202698768128  0.9097500186564547  0.2543960975627157  1.0000
  H   H69       1.0  0.1388521560063651  0.046871900616867274  0.24064116943185154  1.0000
  H   H70       1.0  0.3180590538103757  0.006231092691434532  0.23398704154529174  1.0000
  H   H71       1.0  0.09396991269906144  0.7177182835541458  0.7520606640706586  1.0000
  H   H72       1.0  0.9525713524283524  0.6516787942182622  0.7454165388957902  1.0000
  H   H73       1.0  0.12063535514117933  0.5774318884468805  0.7629365937167973  1.0000
  H   H74       1.0  0.8267213591018041  0.7478317015018469  0.8717263493880735  1.0000
  H   H75       1.0  0.9733300923959323  0.8117677972273899  0.8686185454675769  1.0000
  H   H76       1.0  0.915347644637288  0.7467600949412874  0.9785522233040972  1.0000
  C   C1        1.0  0.18458233561000456  0.890169133347701  0.5864274909147441  1.0000
  C   C2        1.0  0.1268940674918449  0.9297502936721471  0.4972766497618097  1.0000
  C   C3        1.0  0.021416968991170644  0.01490400612011986  0.48232142101758235  1.0000
  C   C4        1.0  0.9716259660161022  0.05825484677583321  0.5562510674667507  1.0000
  C   C5        1.0  0.030717484329420716  0.01955774279872318  0.6453802407986196  1.0000
  C   C6        1.0  0.13940956180870628  0.935799272865011  0.6610284840450663  1.0000
  C   C7        1.0  0.21686776050789822  0.9335676699625247  0.8240673756221607  1.0000
  C   C8        1.0  0.4762929928379206  0.7355279810202477  0.8777492149930307  1.0000
  C   C9        1.0  0.507773437191529  0.6175088700773147  0.8804855387720188  1.0000
  C   C10       1.0  0.6107195644325971  0.5649866567841071  0.9594821910384733  1.0000
  C   C11       1.0  0.4839483896208093  0.6394446710440057  0.7134301344448455  1.0000
  C   C12       1.0  0.542080041403301  0.6228540281836521  0.624625172951525  1.0000
  C   C13       1.0  0.6702582036568496  0.5823431844770843  0.6003996689678488  1.0000
  C   C14       1.0  0.6815297714531574  0.5967253283142429  0.5028524649674673  1.0000
  C   C15       1.0  0.5617496345286155  0.6478273524440749  0.45473696164690447  1.0000
  C   C16       1.0  0.5201649923056387  0.6873012975708036  0.35622553962509157  1.0000
  C   C17       1.0  0.5537891085886989  0.7155328358348286  0.1920284023720996  1.0000
  C   C18       1.0  0.6623279242126405  0.7108343348541748  0.12117646464993168  1.0000
  C   C19       1.0  0.44942023072944653  0.6472530500161676  0.17761412462019405  1.0000
  C   C20       1.0  0.12510043541277757  0.6619256666899233  0.1941939923734973  1.0000
  C   C21       1.0  0.07126395316385141  0.7089776404623963  0.34531583751682055  1.0000
  C   C22       1.0  0.946928359386261  0.7769870328359693  0.32778062727682566  1.0000
  C   C23       1.0  0.8708038276586842  0.8010343546496421  0.401547973260021  1.0000
  C   C24       1.0  0.9196439615602455  0.757979503086932  0.4931281639395174  1.0000
  C   C25       1.0  0.04151928371763707  0.6879318339134773  0.5116965186239103  1.0000
  C   C26       1.0  0.11656805678226842  0.6635768379317696  0.43739444476387823  1.0000
  C   C27       1.0  0.4582791403723215  0.3559482604468334  0.5492938281927866  1.0000
  C   C28       1.0  0.3919019293616663  0.32440244307911886  0.4796046017478652  1.0000
  C   C29       1.0  0.3079942477710527  0.2498437719944065  0.5044444790475993  1.0000
  C   C30       1.0  0.2882461034296551  0.20803373920763865  0.597835572955303  1.0000
  C   C31       1.0  0.35533033574404194  0.23948777798049584  0.6670977184756347  1.0000
  C   C32       1.0  0.44111490181934165  0.31305163385207185  0.6431924339895555  1.0000
  C   C33       1.0  0.47489195455239913  0.35627769810736554  0.7950992323062556  1.0000
  C   C34       1.0  0.7988150011170883  0.3537377211895528  0.8297228267092455  1.0000
  C   C35       1.0  0.9336912941330776  0.28384263787280356  0.8200767095720718  1.0000
  C   C36       1.0  0.037068533543537195  0.28740755706571985  0.8943657238489789  1.0000
  C   C37       1.0  0.8937257352353991  0.3181052749863151  0.6558457063692439  1.0000
  C   C38       1.0  0.9191381921691791  0.35700608546189583  0.5575128223885099  1.0000
  C   C39       1.0  0.012469385913058384  0.4114767203072573  0.5089502976967077  1.0000
  C   C40       1.0  0.9912615039842588  0.4267308577727035  0.41139301632070296  1.0000
  C   C41       1.0  0.88260551862198  0.3834046401607776  0.3880111581043888  1.0000
  C   C42       1.0  0.8296234175499414  0.3663041002875084  0.30003927607213116  1.0000
  C   C43       1.0  0.8385988448125032  0.3853775860825381  0.13314003769303767  1.0000
  C   C44       1.0  0.9146642006793617  0.43793881289493014  0.052792066396761234  1.0000
  C   C45       1.0  0.857188495665621  0.2673995555872366  0.13672375632258438  1.0000
  C   C46       1.0  0.6784407253371028  0.07202641180937532  0.1873228375089785  1.0000
  C   C47       1.0  0.6042503644366928  0.06989323846546742  0.3507656791478195  1.0000
  C   C48       1.0  0.5386339873635522  0.9828420116763464  0.3687525559420668  1.0000
  C   C49       1.0  0.501636141701092  0.9437537243620229  0.4589004989952112  1.0000
  C   C50       1.0  0.5302237434066477  0.990469024963698  0.5312041715026845  1.0000
  C   C51       1.0  0.5904804193694169  0.0795526028291064  0.513708303937712  1.0000
  C   C52       1.0  0.626239465452634  0.11915198609184184  0.42372750504062334  1.0000
  C   C53       1.0  0.7233405969173812  0.01155632207185601  0.7939848836075188  1.0000
  C   C54       1.0  0.5265589028239679  0.032208258750930314  0.918071444281096  1.0000
  C   C55       1.0  0.2932372037232091  0.2428754932291187  0.07970338981712173  1.0000
  C   C56       1.0  0.3756253705151264  0.33448192259671555  0.21212938152806915  1.0000
  C   C57       1.0  0.037303163041768235  0.9655435073825388  0.09116440016554785  1.0000
  C   C58       1.0  0.2177533419373703  0.9899334145231069  0.21934786419840524  1.0000
  C   C59       1.0  0.05327081625042898  0.6458048112147211  0.7773101624298321  1.0000
  C   C60       1.0  0.9259709549660468  0.7462445206467685  0.904372503294392  1.0000
  N   N1        1.0  0.20663807639754242  0.891326719776072  0.7483547843027766  1.0000
  N   N2        1.0  0.2959424982640169  0.8705491347658364  0.8968520109646012  1.0000
  N   N3        1.0  0.3461967145097519  0.7671852572749422  0.8977093991238819  1.0000
  N   N4        1.0  0.5608653523957089  0.6014319512366623  0.7920263425190696  1.0000
  N   N5        1.0  0.6078146783302304  0.6799535119931011  0.28782903991335296  1.0000
  N   N6        1.0  0.33296631695640044  0.704562711018697  0.1338876436747357  1.0000
  N   N7        1.0  0.21931459196066921  0.6599783673343683  0.1281788597863893  1.0000
  N   N8        1.0  0.15864481030799277  0.6908249251554671  0.27267523726039067  1.0000
  N   N9        1.0  0.5181112673576932  0.3415587330975677  0.7119978187690642  1.0000
  N   N10       1.0  0.5673626117973345  0.35550746122525356  0.8644932351720708  1.0000
  N   N11       1.0  0.6984244323189037  0.30194940597408526  0.8640686252575994  1.0000
  N   N12       1.0  0.978199846798835  0.3205197953387994  0.7261119922962453  1.0000
  N   N13       1.0  0.8886917608799267  0.40260698108207743  0.2203761100827487  1.0000
  N   N14       1.0  0.7403144299190817  0.2366769506632391  0.1157872289691761  1.0000
  N   N15       1.0  0.7350135948750468  0.13339004137240898  0.11632175973030183  1.0000
  N   N16       1.0  0.6505414038294769  0.11395446256400356  0.2631934607785444  1.0000
  O   O1        1.0  0.5620614250502679  0.7931654010550777  0.8615308018850888  1.0000
  O   O2        1.0  0.3670519052670891  0.6913713722769208  0.7126982187498297  1.0000
  O   O3        1.0  0.39898943620194277  0.7304585139423183  0.3362285682371923  1.0000
  O   O4        1.0  0.47138141940720985  0.5511622750356423  0.20344444576307602  1.0000
  O   O5        1.0  0.7878458298592301  0.45045187941352177  0.8059649480809635  1.0000
  O   O6        1.0  0.7868583390198375  0.2799539879431125  0.6731269067114346  1.0000
  O   O7        1.0  0.735259587133659  0.3152126408395046  0.3007668899526344  1.0000
  O   O8        1.0  0.9675973248265236  0.2087343233106585  0.15417599295252035  1.0000
  O   O9        1.0  0.7620579672949293  0.093501899663357  0.9383632570214148  1.0000
  O   O10       1.0  0.4925333685856118  0.35237252330158175  0.0487317662741119  1.0000
  O   O11       1.0  0.3031847803902996  0.9165689411062931  0.07251538923087625  1.0000
  O   O12       1.0  0.17050776560161546  0.6301343017179524  0.9443778155114324  1.0000
  O   O13       1.0  0.21400024531822892  0.41914724456521385  0.7359635503252966  1.0000
  S   S1        1.0  0.1464127711223634  0.05319328882417792  0.8374524694112316  1.0000
  S   S2        1.0  0.4356498392805961  0.675365772648778  0.5289857374009453  1.0000
  S   S3        1.0  0.9749147481088942  0.6296840691521816  0.17308756540012207  1.0000
  S   S4        1.0  0.3092319738578559  0.3859991902669279  0.8235688154941502  1.0000
  S   S5        1.0  0.8049461404687026  0.3272096373207325  0.48437958163853106  1.0000
  S   S6        1.0  0.653588607166159  0.9550480285080117  0.17146752511819635  1.0000
  S   S7        1.0  0.7067953277591327  0.9996392494444691  0.9170002319670791  1.0000
  S   S8        1.0  0.3511463077959425  0.3617306727219311  0.087987421120641  1.0000
  S   S9        1.0  0.1991289489958938  0.004995282382907115  0.09551815869629517  1.0000
  S   S10       1.0  0.03440795449984715  0.6247425820059164  0.9005409189276494  1.0000
  Cl  Cl1       1.0  0.9548873700437677  0.0694054771998813  0.3703238181355054  1.0000
  Cl  Cl2       1.0  0.8283702456897593  0.7953679228949597  0.5836539865316117  1.0000
  Cl  Cl3       1.0  0.22934458374541855  0.2059993452121509  0.41899242703370954  1.0000
  Cl  Cl4       1.0  0.49462579665245227  0.9351570853243952  0.6441906021946966  1.0000
