data_image0
_chemical_formula_structural       H28C22N8O6S2Cl2
_chemical_formula_sum              "H28 C22 N8 O6 S2 Cl2"
_cell_length_a       5.556174917465943
_cell_length_b       11.290537900173234
_cell_length_c       11.924168501449598
_cell_angle_alpha    64.30999625245447
_cell_angle_beta     79.52232469440237
_cell_angle_gamma    76.97218845933612

_space_group_name_H-M_alt    "P 1"
_space_group_IT_number       1

loop_
  _space_group_symop_operation_xyz
  'x, y, z'

loop_
  _atom_site_type_symbol
  _atom_site_label
  _atom_site_symmetry_multiplicity
  _atom_site_fract_x
  _atom_site_fract_y
  _atom_site_fract_z
  _atom_site_occupancy
  H   H1        1.0  0.3431103755816241  0.9858110816583462  0.5933661447173065  1.0000
  H   H2        1.0  0.6568896240598416  0.014188918532557519  0.4066338545506447  1.0000
  H   H3        1.0  0.329445412767903  0.850852099650628  0.9578368733808906  1.0000
  H   H4        1.0  0.6705545866916237  0.14914790012812007  0.04216312682197204  1.0000
  H   H5        1.0  0.4553370050223296  0.8394392150549665  0.08272772478594348  1.0000
  H   H6        1.0  0.544662994437197  0.16056078472378152  0.9172722754169194  1.0000
  H   H7        1.0  0.13702218094331006  0.8527302592159168  0.08395752525287954  1.0000
  H   H8        1.0  0.8629778185162164  0.14726974056283126  0.9160424749499833  1.0000
  H   H9        1.0  0.012497140704896442  0.9738287937954554  0.7491679675236987  1.0000
  H   H10       1.0  0.9875028589365693  0.02617120639544828  0.25083203174425256  1.0000
  H   H11       1.0  0.6096990873353223  0.14139971775105767  0.6898524020377659  1.0000
  H   H12       1.0  0.3903009123061433  0.8586002824398459  0.3101475972301854  1.0000
  H   H13       1.0  0.6056417318294502  0.30952245178759935  0.4666702191588758  1.0000
  H   H14       1.0  0.39435826763007636  0.6904775479911487  0.533329781043987  1.0000
  H   H15       1.0  0.03351656884199313  0.4391395686256406  0.10017963721819592  1.0000
  H   H16       1.0  0.966483430617534  0.5608604311531075  0.8998203629846667  1.0000
  H   H17       1.0  0.005816452033015234  0.6858713918918382  0.020846676748429216  1.0000
  H   H18       1.0  0.9941835474265114  0.3141286078869096  0.9791533234544337  1.0000
  H   H19       1.0  0.6675240705155815  0.6240742030445506  0.19279296861146322  1.0000
  H   H20       1.0  0.3324759289439452  0.3759257967341971  0.8072070315913997  1.0000
  H   H21       1.0  0.7106282272811765  0.3786074789976098  0.25971442839899506  1.0000
  H   H22       1.0  0.28937177217835036  0.6213925207811382  0.7402855718038677  1.0000
  H   H23       1.0  0.7919425289997165  0.7196040109489404  0.33514300455703394  1.0000
  H   H24       1.0  0.20805747045981016  0.28039598882980754  0.6648569956458289  1.0000
  H   H25       1.0  0.9712522846009359  0.4935390179053265  0.3775683125710649  1.0000
  H   H26       1.0  0.02874771485859067  0.5064609818734216  0.6224316876317979  1.0000
  H   H27       1.0  0.17228407949100508  0.5861028167316019  0.39529508766541477  1.0000
  H   H28       1.0  0.8277159199685217  0.41389718304714607  0.604704912537448  1.0000
  C   C1        1.0  0.1734284805167142  0.15051656855244663  0.44811942280351175  1.0000
  C   C2        1.0  0.8265715189428124  0.8494834312263013  0.551880577399351  1.0000
  C   C3        1.0  0.987266159962197  0.05322049978427403  0.6567744312906912  1.0000
  C   C4        1.0  0.012733839679268789  0.9467795004066297  0.34322556797726017  1.0000
  C   C5        1.0  0.7723470958949069  0.14378853752162293  0.6227494631152685  1.0000
  C   C6        1.0  0.2276529035646198  0.8562114622571251  0.37725053708759426  1.0000
  C   C7        1.0  0.7722338699774208  0.23586410867435695  0.4976866175581569  1.0000
  C   C8        1.0  0.22776612948210598  0.764135891104391  0.5023133826447059  1.0000
  C   C9        1.0  0.3704997075499995  0.3959014293414992  0.1849234894259708  1.0000
  C   C10       1.0  0.6295002920914663  0.6040985708494044  0.8150765098419807  1.0000
  C   C11       1.0  0.17159019178112392  0.4808845141587377  0.11907437494672873  1.0000
  C   C12       1.0  0.8284098076784028  0.5191154856200104  0.8809256252561342  1.0000
  C   C13       1.0  0.15438435868544204  0.6179386279529111  0.07674420646275769  1.0000
  C   C14       1.0  0.8456156407740847  0.38206137182583694  0.9232557937401051  1.0000
  C   C15       1.0  0.33402164381337035  0.6672070050829941  0.10423164323193548  1.0000
  C   C16       1.0  0.6659783574452219  0.33279299469473766  0.8957683569739754  1.0000
  C   C17       1.0  0.5299358135178808  0.5828023082195332  0.1725069434136387  1.0000
  C   C18       1.0  0.47006418594164584  0.4171976915592149  0.827493056789224  1.0000
  C   C19       1.0  0.5511821704123339  0.4454306215444194  0.21178968017322927  1.0000
  C   C20       1.0  0.44881783084625837  0.5545693782333123  0.7882103200326818  1.0000
  C   C21       1.0  0.9947081950674432  0.5479564215113312  0.4315749639945734  1.0000
  C   C22       1.0  0.005291804392083503  0.45204357826741676  0.5684250362082894  1.0000
  N   N1        1.0  0.18110817322345713  0.05741965093356423  0.5699009719612964  1.0000
  N   N2        1.0  0.8188918258182346  0.9425803497525422  0.4300990282455281  1.0000
  N   N3        1.0  0.9654412096749084  0.24011647455350252  0.4117829758119393  1.0000
  N   N4        1.0  0.034558789784618446  0.7598835252252454  0.5882170243909234  1.0000
  N   N5        1.0  0.38344643903555337  0.14178893222709343  0.37387617598999984  1.0000
  N   N6        1.0  0.6165535624049777  0.8582110679627941  0.6261238232809997  1.0000
  N   N7        1.0  0.3149052645491922  0.8115387955827277  0.05555751982389853  1.0000
  N   N8        1.0  0.6850947344924996  0.18846120510337852  0.9444424803829261  1.0000
  O   O1        1.0  0.6577265229737457  0.1792676910040175  0.1844624523357885  1.0000
  O   O2        1.0  0.3422734766677201  0.8207323091868861  0.8155375469321627  1.0000
  O   O3        1.0  0.21172785034106337  0.20596643555715885  0.164964953901836  1.0000
  O   O4        1.0  0.7882721491184633  0.794033564221589  0.8350350463010268  1.0000
  O   O5        1.0  0.7920283446019325  0.6543345639646321  0.42317689568979555  1.0000
  O   O6        1.0  0.20797165485759428  0.3456654358141159  0.5768231045130673  1.0000
  S   S1        1.0  0.4010238581110845  0.2224356396070021  0.22402983490695141  1.0000
  S   S2        1.0  0.5989761413484422  0.7775643601717459  0.7759701652959113  1.0000
  Cl  Cl1       1.0  0.7568955451659154  0.8762792103809794  0.1444584980707904  1.0000
  Cl  Cl2       1.0  0.24310445429361108  0.12372078939776845  0.8555415021320725  1.0000
