data_image0
_chemical_formula_structural       H48C8N32O24
_chemical_formula_sum              "H48 C8 N32 O24"
_cell_length_a       14.607128328502663
_cell_length_b       3.612834452556191
_cell_length_c       20.366564154976817
_cell_angle_alpha    90.0
_cell_angle_beta     108.91686444812387
_cell_angle_gamma    90.0

_space_group_name_H-M_alt    "P 1"
_space_group_IT_number       1

loop_
  _space_group_symop_operation_xyz
  'x, y, z'

loop_
  _atom_site_type_symbol
  _atom_site_label
  _atom_site_symmetry_multiplicity
  _atom_site_fract_x
  _atom_site_fract_y
  _atom_site_fract_z
  _atom_site_occupancy
  H   H1        1.0  0.32496129173558613  0.4154045306277863  0.7061310329711957  1.0000
  H   H2        1.0  0.1750387078986293  0.915404531657976  0.7938689672704613  1.0000
  H   H3        1.0  0.6750387076904615  0.5845954686646829  0.2938689668752384  1.0000
  H   H4        1.0  0.8249612922511015  0.08459546763449341  0.20613103274381264  1.0000
  H   H5        1.0  0.20311298503983394  0.5350864633811873  0.684971985918074  1.0000
  H   H6        1.0  0.29688701531743283  0.03508646235099765  0.8150280140002756  1.0000
  H   H7        1.0  0.7968870151098969  0.46491353867919194  0.31502801409620007  1.0000
  H   H8        1.0  0.7031129848322981  0.9649135369414718  0.18497198601399847  1.0000
  H   H9        1.0  0.14250009222901008  0.26209123679332846  0.5100273333691921  1.0000
  H   H10       1.0  0.35749990812825666  0.7620912350556083  0.9899726665491574  1.0000
  H   H11       1.0  0.8574999079207206  0.7379087652670506  0.4899726666450819  1.0000
  H   H12       1.0  0.6425000920214741  0.23790876423686108  0.010027333465116701  1.0000
  H   H13       1.0  0.10015280757452778  0.47814068778539826  0.5716966870518349  1.0000
  H   H14       1.0  0.3998471927833708  0.9781406888155879  0.9283033133576621  1.0000
  H   H15       1.0  0.8998471925752031  0.5218593115070711  0.428303312962439  1.0000
  H   H16       1.0  0.6001528073663599  0.021859310476881503  0.07169668665661191  1.0000
  H   H17       1.0  0.694799130404763  0.6077929915793305  0.6682606631522225  1.0000
  H   H18       1.0  0.8052008698198331  0.10779299331705068  0.8317393368691884  1.0000
  H   H19       1.0  0.3052008697449677  0.39220700771313893  0.3317393368620514  1.0000
  H   H20       1.0  0.19479913032989765  0.8922070087433285  0.16826066314508556  1.0000
  H   H21       1.0  0.6615535995734232  0.6935678019310041  0.742023230084657  1.0000
  H   H22       1.0  0.8384463999274899  0.19356780366872434  0.7579767697689143  1.0000
  H   H23       1.0  0.3384463998526245  0.30643219736146526  0.25797676976177725  1.0000
  H   H24       1.0  0.16155359949855783  0.8064321956237449  0.24202323007751986  1.0000
  H   H25       1.0  0.42487162852724764  0.010454910263955008  0.645514909582002  1.0000
  H   H26       1.0  0.0751283718306509  0.5104549112941446  0.8544850908274951  1.0000
  H   H27       1.0  0.5751283716224831  0.9895450890285143  0.35448509043227205  1.0000
  H   H28       1.0  0.9248716283190798  0.48954508799832475  0.14551490918677892  1.0000
  H   H29       1.0  0.5018049454625289  0.8392475713507224  0.7262637143826263  1.0000
  H   H30       1.0  0.9981950540383843  0.33924757032053277  0.7737362854709449  1.0000
  H   H31       1.0  0.49819505396351876  0.16075242794174696  0.27373628546380785  1.0000
  H   H32       1.0  0.0018049461113465498  0.6607524289719365  0.2262637145433291  1.0000
  H   H33       1.0  0.34537737970323057  0.41526002359131514  0.5282869479607067  1.0000
  H   H34       1.0  0.15462261993098483  0.9152600218535949  0.9717130522809505  1.0000
  H   H35       1.0  0.654622619722817  0.584739978469064  0.47171305188572743  1.0000
  H   H36       1.0  0.8453773802187459  0.08473997743887446  0.028286947733323572  1.0000
  H   H37       1.0  0.394966140721806  0.4164510385842538  0.461668922136639  1.0000
  H   H38       1.0  0.10503385935305937  0.9164510368465336  0.03833107787049797  1.0000
  H   H39       1.0  0.6050338594279248  0.5835489634761253  0.5383310778776349  1.0000
  H   H40       1.0  0.8949661407966714  0.08354896244593572  0.9616689221437759  1.0000
  H   H41       1.0  0.43307365685027066  0.7260645137349263  0.5275710018394757  1.0000
  H   H42       1.0  0.06692634278331297  0.22606451270473685  0.9724289979110337  1.0000
  H   H43       1.0  0.5669263425757769  0.2739354883254527  0.47242899800695837  1.0000
  H   H44       1.0  0.9330736573664178  0.7739354865877326  0.027571002103240202  1.0000
  H   H45       1.0  0.3186978326803676  0.7590839148634768  0.4689382446142169  1.0000
  H   H46       1.0  0.18130216739449778  0.2590839166011972  0.03106175539292011  1.0000
  H   H47       1.0  0.6813021674693632  0.24091608442899243  0.5310617554000571  1.0000
  H   H48       1.0  0.818697832755233  0.7409160854591821  0.9689382446213538  1.0000
  C   C1        1.0  0.24341966539382842  0.3033847092618624  0.606134971789934  1.0000
  C   C2        1.0  0.2565803342397552  0.803384710292052  0.8938650279605754  1.0000
  C   C3        1.0  0.7565803340322191  0.6966152900306068  0.3938650280564999  1.0000
  C   C4        1.0  0.7434196659099755  0.19661528900041733  0.1061349720536986  1.0000
  C   C5        1.0  0.5595842277122438  0.8271203785398256  0.6472929099535116  1.0000
  C   C6        1.0  0.9404157725123524  0.3271203775096359  0.8527070900678992  1.0000
  C   C7        1.0  0.44041577243748703  0.1728796235205537  0.35270709006076223  1.0000
  C   C8        1.0  0.059584227637378355  0.6728796217828334  0.14729290994637476  1.0000
  N   N1        1.0  0.2562053956112365  0.3957081783773663  0.6730470012077516  1.0000
  N   N2        1.0  0.24379460402297895  0.8957081794075559  0.8269529990339055  1.0000
  N   N3        1.0  0.743794604539126  0.604291820915103  0.3269529992976699  1.0000
  N   N4        1.0  0.7562053961267519  0.1042918198849134  0.1730470009803685  1.0000
  N   N5        1.0  0.15434258255339228  0.3475022690596072  0.5595894111543895  1.0000
  N   N6        1.0  0.34565741708082315  0.8475022700897967  0.9404105890872676  1.0000
  N   N7        1.0  0.8456574168726554  0.6524977302328622  0.4404105886920445  1.0000
  N   N8        1.0  0.6543425830689075  0.15249772920267263  0.059589410927006446  1.0000
  N   N9        1.0  0.6461991978563689  0.7066998622628667  0.6896590324960098  1.0000
  N   N10       1.0  0.8538008023682273  0.206699864000587  0.8103409675254012  1.0000
  N   N11       1.0  0.35380080229336186  0.29330013702960256  0.3103409675182642  1.0000
  N   N12       1.0  0.14619919778150356  0.7933001380597922  0.1896590324888728  1.0000
  N   N13       1.0  0.49107871771203404  0.9086864989557503  0.6759286370851326  1.0000
  N   N14       1.0  0.008921282645232743  0.40868649792556067  0.8240713628332167  1.0000
  N   N15       1.0  0.5089212824376967  0.0913135031046289  0.3240713629291413  1.0000
  N   N16       1.0  0.9910787175044979  0.5913135013669086  0.17592863718105722  1.0000
  N   N17       1.0  0.6503494161827306  0.593523807458944  0.8710004736160741  1.0000
  N   N18       1.0  0.8496505840418656  0.0935238091966642  0.6289995264053369  1.0000
  N   N19       1.0  0.3496505839670001  0.40647619183352535  0.12899952639819978  1.0000
  N   N20       1.0  0.15034941610786526  0.906476192863715  0.37100047360893723  1.0000
  N   N21       1.0  0.49590630978218003  0.3381795086502091  0.8518581632200792  1.0000
  N   N22       1.0  0.004093689851403524  0.8381795096803987  0.6481418365304302  1.0000
  N   N23       1.0  0.5040936903675507  0.6618204906422602  0.14814183679419474  1.0000
  N   N24       1.0  0.995906309574644  0.16182048961207063  0.3518581633160038  1.0000
  N   N25       1.0  0.5572876368760132  0.5434321931387925  0.827213817591716  1.0000
  N   N26       1.0  0.9427123633492147  0.04343219210860299  0.6727861829208427  1.0000
  N   N27       1.0  0.4427123632737175  0.45656780615367676  0.17278618242255814  1.0000
  N   N28       1.0  0.05728763680114789  0.9565678071838664  0.32721381758457885  1.0000
  N   N29       1.0  0.37230064076552855  0.5799638088917973  0.49607074315483635  1.0000
  N   N30       1.0  0.12769935930933685  0.07996381062951755  0.0039292568523007125  1.0000
  N   N31       1.0  0.6276993593842023  0.42003619040067197  0.5039292568594378  1.0000
  N   N32       1.0  0.872300640840394  0.9200361914308616  0.9960707431619733  1.0000
  O   O1        1.0  0.31211278808100884  0.16937140298998596  0.5881299067734123  1.0000
  O   O2        1.0  0.18788721227625785  0.6693714012522657  0.9118700931449372  1.0000
  O   O3        1.0  0.6878872120687219  0.8306285990703932  0.41187009324086177  1.0000
  O   O4        1.0  0.8121127878734729  0.3306285980402036  0.08812990686933676  1.0000
  O   O5        1.0  0.5449038632433193  0.8642756569681034  0.5822597153723217  1.0000
  O   O6        1.0  0.9550961369812768  0.3642756559379137  0.9177402846490892  1.0000
  O   O7        1.0  0.45509613690641154  0.13572434232436603  0.4177402846419523  1.0000
  O   O8        1.0  0.044903863168453836  0.6357243433545555  0.08225971536518474  1.0000
  O   O9        1.0  0.5154260801586044  0.21117515347546464  0.9116490492846441  1.0000
  O   O10       1.0  0.9845739200659918  0.7111751517377445  0.5883509507367669  1.0000
  O   O11       1.0  0.48457391999112637  0.7888248458170046  0.08835095072963  1.0000
  O   O12       1.0  0.015426080083738991  0.28882484755472493  0.41164904927750695  1.0000
  O   O13       1.0  0.6989829648755062  0.783469928437297  0.8423158585707727  1.0000
  O   O14       1.0  0.8010170346254067  0.28346992740710736  0.6576841412827983  1.0000
  O   O15       1.0  0.3010170352742246  0.21653007362308221  0.15768414144350118  1.0000
  O   O16       1.0  0.19898296480064087  0.7165300718853619  0.3423158585636358  1.0000
  O   O17       1.0  0.6863470598077256  0.4699415963548342  0.9308952538549058  1.0000
  O   O18       1.0  0.8136529396931874  0.969941594617114  0.5691047459986653  1.0000
  O   O19       1.0  0.313652939618322  0.530058405705545  0.0691047459915283  1.0000
  O   O20       1.0  0.18634705973286023  0.03005840467535538  0.4308952538477688  1.0000
  O   O21       1.0  0.41522935103172276  0.2919102975376636  0.8060366556740151  1.0000
  O   O22       1.0  0.08477064932554405  0.7919102985678532  0.6939633442443344  1.0000
  O   O23       1.0  0.5847706491180081  0.7080897017548057  0.19396334434025897  1.0000
  O   O24       1.0  0.9152293508241867  0.2080897007246161  0.3060366557699396  1.0000
