data_image0
_chemical_formula_structural       H38C14N10O8S2
_chemical_formula_sum              "H38 C14 N10 O8 S2"
_cell_length_a       5.245363364683616
_cell_length_b       12.468758410410812
_cell_length_c       9.142642336047711
_cell_angle_alpha    90.0
_cell_angle_beta     98.70663470523554
_cell_angle_gamma    90.0

_space_group_name_H-M_alt    "P 1"
_space_group_IT_number       1

loop_
  _space_group_symop_operation_xyz
  'x, y, z'

loop_
  _atom_site_type_symbol
  _atom_site_label
  _atom_site_symmetry_multiplicity
  _atom_site_fract_x
  _atom_site_fract_y
  _atom_site_fract_z
  _atom_site_occupancy
  H   H1        1.0  0.2807298699002858  0.36391684886695136  0.7426397805331244  1.0000
  H   H2        1.0  0.719270129580568  0.8639168484494754  0.2573602197788596  1.0000
  H   H3        1.0  0.47936013868988864  0.2553608727667292  0.7716474111090215  1.0000
  H   H4        1.0  0.5206398607907449  0.7553608723492532  0.2283525881091677  1.0000
  H   H5        1.0  0.39288468152493816  0.25680721003676105  0.3413057065133937  1.0000
  H   H6        1.0  0.6071153179559157  0.7568072096192852  0.6586942937985902  1.0000
  H   H7        1.0  0.6359732891115093  0.10534717064557529  0.4404061418067449  1.0000
  H   H8        1.0  0.3640267103693446  0.6053471710301038  0.559593858505239  1.0000
  H   H9        1.0  0.6823407144892565  0.21686216710577125  0.565093149572408  1.0000
  H   H10       1.0  0.31765928692026824  0.7168621666882953  0.4349068509069518  1.0000
  H   H11       1.0  0.12937324823975935  0.20373783951727892  0.5627894624774462  1.0000
  H   H12       1.0  0.870626753169545  0.7037378399018075  0.4372105369081188  1.0000
  H   H13       1.0  0.0832470137041852  0.10178271149598658  0.42527145910013153  1.0000
  H   H14       1.0  0.9167529857766686  0.6017827118805151  0.5747285412118522  1.0000
  H   H15       1.0  0.5553250137426947  0.2709826430816761  0.1081929300614889  1.0000
  H   H16       1.0  0.4446749857381589  0.7709826426642001  0.891807070250495  1.0000
  H   H17       1.0  0.582731697699067  0.13713852604380214  0.17851208341019284  1.0000
  H   H18       1.0  0.41726830178178675  0.6371385256263262  0.8214879169017911  1.0000
  H   H19       1.0  0.03234762837132574  0.14656778725250705  0.1705170541111771  1.0000
  H   H20       1.0  0.967652371109528  0.6465677868350311  0.8294829462008069  1.0000
  H   H21       1.0  0.0004008762757514936  0.2832152323242945  0.11399107983622736  1.0000
  H   H22       1.0  0.9995991251337731  0.7832152319068186  0.8860089206431325  1.0000
  H   H23       1.0  0.6403116710637538  0.3970495278717079  0.4712757346759509  1.0000
  H   H24       1.0  0.3596883303457709  0.8970495274542319  0.5287242658034088  1.0000
  H   H25       1.0  0.6087657745123293  0.4189112009451393  0.2761431363526695  1.0000
  H   H26       1.0  0.39123422496852445  0.9189112005276634  0.7238568639593144  1.0000
  H   H27       1.0  0.0626694637837172  0.42367061227116604  0.3002214814758607  1.0000
  H   H28       1.0  0.9373305356971366  0.9236706126556945  0.6997785188361232  1.0000
  H   H29       1.0  0.09135372653093787  0.38679962360751985  0.49036151822462004  1.0000
  H   H30       1.0  0.9086462748785867  0.8867996239920484  0.5096384822547397  1.0000
  H   H31       1.0  0.5910699473112694  0.9576309017287787  0.9855020356131707  1.0000
  H   H32       1.0  0.40893005216958445  0.45763090134425016  0.014497964698813107  1.0000
  H   H33       1.0  0.9298227853229452  0.9527366822731314  0.987828273646756  1.0000
  H   H34       1.0  0.07017721415790852  0.45273668269060724  0.012171726665227891  1.0000
  H   H35       1.0  0.9501689646737025  0.19988553374480567  0.8066427735196663  1.0000
  H   H36       1.0  0.04983103480693094  0.6998855333273297  0.1933572256985227  1.0000
  H   H37       1.0  0.1359262560620905  0.09067653913768861  0.8765035245344754  1.0000
  H   H38       1.0  0.8640737434187633  0.5906765395222172  0.12349647577750854  1.0000
  C   C1        1.0  0.7271144986305221  0.1840185762268212  0.4610326614728213  1.0000
  C   C2        1.0  0.27288550085033164  0.6840185758093453  0.5389673388391626  1.0000
  C   C3        1.0  0.01946947261269384  0.18132272561414642  0.4556499268885932  1.0000
  C   C4        1.0  0.9805305268681599  0.6813227251966704  0.5443500734233907  1.0000
  C   C5        1.0  0.6590054597285709  0.21880805531704184  0.19357665860706127  1.0000
  C   C6        1.0  0.34099453975228283  0.7188080548995659  0.8064233417049226  1.0000
  C   C7        1.0  0.9537961880081608  0.2247531813320031  0.19542600729834111  1.0000
  C   C8        1.0  0.046203811472692945  0.7247531809145272  0.8045739930136427  1.0000
  C   C9        1.0  0.7011255462004019  0.3692808344217726  0.36818835086736634  1.0000
  C   C10       1.0  0.29887445328045187  0.8692808348063011  0.6318116494446175  1.0000
  C   C11       1.0  0.9977734578023626  0.36680289965208435  0.3782714688745211  1.0000
  C   C12       1.0  0.002226543606941766  0.8668029000366129  0.6217285305110438  1.0000
  C   C13       1.0  0.7360841887348979  0.07881825901602503  0.8759207168321287  1.0000
  C   C14       1.0  0.26391581267462677  0.5788182594005536  0.1240792836472312  1.0000
  N   N1        1.0  0.4538613067010433  0.33179534110996495  0.7241198712742422  1.0000
  N   N2        1.0  0.5461386947084814  0.8317953414944935  0.2758801292051175  1.0000
  N   N3        1.0  0.6029779663577528  0.25715704358525276  0.3406320384660682  1.0000
  N   N4        1.0  0.39702203312288065  0.7571570439697813  0.6593679607521208  1.0000
  N   N5        1.0  0.08488005958196197  0.25810796745511455  0.34331460173076267  1.0000
  N   N6        1.0  0.9151199398986715  0.7581079678396432  0.6566853974874265  1.0000
  N   N7        1.0  0.7519211289620455  0.9809425563805608  0.942326084228836  1.0000
  N   N8        1.0  0.24807887051880828  0.4809425559960322  0.05767391608314788  1.0000
  N   N9        1.0  0.9570772408720943  0.12172238085331505  0.840846845619401  1.0000
  N   N10       1.0  0.04292275860875942  0.6217223812378436  0.15915315469258293  1.0000
  O   O1        1.0  0.9256845656058431  0.3492313826823541  0.7513929811388369  1.0000
  O   O2        1.0  0.0743154338750106  0.8492313830668827  0.24860701917314704  1.0000
  O   O3        1.0  0.654749904908631  0.5105644387723969  0.7069641061841202  1.0000
  O   O4        1.0  0.3452500945720023  0.010564439189872795  0.2930358930340689  1.0000
  O   O5        1.0  0.7177514312381074  0.42348340517939564  0.9495156529714033  1.0000
  O   O6        1.0  0.2822485682427464  0.9234834047619198  0.05048434734058063  1.0000
  O   O7        1.0  0.5203944855139114  0.12531141181590352  0.8433224866274139  1.0000
  O   O8        1.0  0.4796055158956132  0.6253114113984276  0.15667751385194578  1.0000
  S   S1        1.0  0.6997883732229375  0.40904991195767  0.7866263829610172  1.0000
  S   S2        1.0  0.30021162818658714  0.9090499115401941  0.21337361751834255  1.0000
