data_image0
_chemical_formula_structural       H22C24N6O6Cl4
_chemical_formula_sum              "H22 C24 N6 O6 Cl4"
_cell_length_a       6.2880617561096175
_cell_length_b       6.849092761104346
_cell_length_c       15.350034550469426
_cell_angle_alpha    92.53238723154453
_cell_angle_beta     92.91618858174186
_cell_angle_gamma    103.45620991223046

_space_group_name_H-M_alt    "P 1"
_space_group_IT_number       1

loop_
  _space_group_symop_operation_xyz
  'x, y, z'

loop_
  _atom_site_type_symbol
  _atom_site_label
  _atom_site_symmetry_multiplicity
  _atom_site_fract_x
  _atom_site_fract_y
  _atom_site_fract_z
  _atom_site_occupancy
  H   H1        1.0  0.9493784539752674  0.9202653550667587  0.40774245825136496  1.0000
  H   H2        1.0  0.050621545815057435  0.07973464616542461  0.5922575420891177  1.0000
  H   H3        1.0  0.2153010560540595  0.019944435136891037  0.3727762193284081  1.0000
  H   H4        1.0  0.7846989448388244  0.9800555644967236  0.6272237803627513  1.0000
  H   H5        1.0  0.14883811484552148  0.9236246777964277  0.07673318405907913  1.0000
  H   H6        1.0  0.8511618860473624  0.07637532183718693  0.9232668156320804  1.0000
  H   H7        1.0  0.7467535531711376  0.771621159079145  0.04010077528297963  1.0000
  H   H8        1.0  0.2532464477217464  0.22837884055446975  0.9598992244081799  1.0000
  H   H9        1.0  0.5026332206417498  0.7060223936630727  0.16876983614484273  1.0000
  H   H10       1.0  0.4973667787598919  0.29397760606805967  0.8312301641970311  1.0000
  H   H11       1.0  0.5753782530462375  0.8158770226223354  0.768050336970205  1.0000
  H   H12       1.0  0.4246217462579493  0.18412297701883418  0.23194966271827896  1.0000
  H   H13       1.0  0.7813231100035795  0.5027740399076939  0.7085841647806581  1.0000
  H   H14       1.0  0.21867689127798778  0.49722596122697177  0.29141583490911044  1.0000
  H   H15       1.0  0.016077090426406704  0.5776346232027546  0.586973550506756  1.0000
  H   H16       1.0  0.9839229108551605  0.42236537793191103  0.41302644918301246  1.0000
  H   H17       1.0  0.24193896770087764  0.7867990410862366  0.5038858079886996  1.0000
  H   H18       1.0  0.7580610331920062  0.21320095854737822  0.49611419170245985  1.0000
  H   H19       1.0  0.29661382551635485  0.5422892772753405  0.5062794126185199  1.0000
  H   H20       1.0  0.7033861753765291  0.4577107223582741  0.4937205870726395  1.0000
  H   H21       1.0  0.6500560039606196  0.7839636110559453  0.3127733782488947  1.0000
  H   H22       1.0  0.34994399573225043  0.21603639008627534  0.6872266214381981  1.0000
  C   C1        1.0  0.9825364803122875  0.9002335952769509  0.2755798047006117  1.0000
  C   C2        1.0  0.0174635189918994  0.09976640436421867  0.7244201949878722  1.0000
  C   C3        1.0  0.03450549189718634  0.8918466259144213  0.12850385391163738  1.0000
  C   C4        1.0  0.9654945074070006  0.1081533737267483  0.8714961457768464  1.0000
  C   C5        1.0  0.8112617786792119  0.8074059854355183  0.10719004984893932  1.0000
  C   C6        1.0  0.1887382206249749  0.19259401420565123  0.8928099498395446  1.0000
  C   C7        1.0  0.6785876708587232  0.7708028639494622  0.17623036147314966  1.0000
  C   C8        1.0  0.32141233003416075  0.2291971356841524  0.8237696382180097  1.0000
  C   C9        1.0  0.3134109034654621  0.698700379914696  0.6694583011959441  1.0000
  C   C10       1.0  0.6865890959361794  0.3012996198164363  0.3305416991459297  1.0000
  C   C11       1.0  0.4023518402672359  0.7424375524991427  0.7557112986478941  1.0000
  C   C12       1.0  0.5976481590369509  0.257562447142027  0.2442887010405899  1.0000
  C   C13       1.0  0.2664561505015901  0.7015921791258257  0.8244696552208028  1.0000
  C   C14       1.0  0.7335438488025967  0.2984078205153439  0.1755303444676811  1.0000
  C   C15       1.0  0.04096031664113777  0.6165534390270172  0.8085853445599004  1.0000
  C   C16       1.0  0.9590396826630491  0.3834465606141525  0.19141465512858358  1.0000
  C   C17       1.0  0.9548931380012827  0.5712197017053964  0.7226935179223706  1.0000
  C   C18       1.0  0.04510686130290422  0.4287802979357732  0.2773064817661133  1.0000
  C   C19       1.0  0.0894740968576666  0.6113115916002528  0.6530908847928297  1.0000
  C   C20       1.0  0.9105259040352173  0.38868840803336174  0.34690911489832965  1.0000
  C   C21       1.0  0.3696338814569035  0.704526938071899  0.5176285555332689  1.0000
  C   C22       1.0  0.6303661195334352  0.2954730616516784  0.48237144481128047  1.0000
  C   C23       1.0  0.5491879549616066  0.766831530579456  0.4543260236583024  1.0000
  C   C24       1.0  0.4508120443425803  0.23316846906171365  0.5456739760301815  1.0000
  N   N1        1.0  0.7631507364334029  0.8160610974125849  0.258709449355917  1.0000
  N   N2        1.0  0.23684926296823874  0.18393890231854762  0.7412905509859569  1.0000
  N   N3        1.0  0.05655454963020836  0.9456487700971624  0.35793442748952764  1.0000
  N   N4        1.0  0.9434454497714335  0.05435122963397014  0.6420655728523461  1.0000
  N   N5        1.0  0.12022825738389546  0.9376904393021813  0.2097352676188132  1.0000
  N   N6        1.0  0.8797717419202914  0.06230956033898836  0.7902647320696708  1.0000
  O   O1        1.0  0.4577209363898134  0.7487664315974811  0.6061126255465856  1.0000
  O   O2        1.0  0.5422790645030705  0.2512335680361334  0.39388737414457375  1.0000
  O   O3        1.0  0.7424931001584703  0.8464081774847242  0.4829656253567864  1.0000
  O   O4        1.0  0.2575068992431714  0.15359182224640824  0.5170343749850874  1.0000
  O   O5        1.0  0.48040827635030386  0.7293043026061676  0.374166529655183  1.0000
  O   O6        1.0  0.5195917229538829  0.27069569703500196  0.6258334700333009  1.0000
  Cl  Cl1       1.0  0.3794018366462821  0.7594014364853219  0.9305526562066662  1.0000
  Cl  Cl2       1.0  0.6205981626579048  0.24059856315584777  0.0694473434818178  1.0000
  Cl  Cl3       1.0  0.8709438301346838  0.5706466624945621  0.8940043726200705  1.0000
  Cl  Cl4       1.0  0.12905616926695787  0.4293533372365704  0.10599562772180342  1.0000
