data_image0
_chemical_formula_structural       H44C48N12O12Cl8
_chemical_formula_sum              "H44 C48 N12 O12 Cl8"
_cell_length_a       14.499897972666783
_cell_length_b       4.037009473897528
_cell_length_c       22.849126094280876
_cell_angle_alpha    90.0
_cell_angle_beta     99.58701236323166
_cell_angle_gamma    90.0

_space_group_name_H-M_alt    "P 1"
_space_group_IT_number       1

loop_
  _space_group_symop_operation_xyz
  'x, y, z'

loop_
  _atom_site_type_symbol
  _atom_site_label
  _atom_site_symmetry_multiplicity
  _atom_site_fract_x
  _atom_site_fract_y
  _atom_site_fract_z
  _atom_site_occupancy
  H   H1        1.0  0.9652751600851379  0.18360595504978855  0.8725918122106128  1.0000
  H   H2        1.0  0.5347248399153236  0.6836059558056046  0.6274081879565232  1.0000
  H   H3        1.0  0.03472483964765344  0.8163940439847621  0.1274081877519388  1.0000
  H   H4        1.0  0.46527515981746764  0.3163940457060274  0.3725918120060283  1.0000
  H   H5        1.0  0.01805185388396828  0.020164562537280363  0.9445298734699793  1.0000
  H   H6        1.0  0.4819481463894922  0.5201645632930962  0.5554701267954307  1.0000
  H   H7        1.0  0.9819481465391975  0.9798354364972705  0.05547012649534571  1.0000
  H   H8        1.0  0.5180518533432991  0.47983543574145443  0.4445298731671207  1.0000
  H   H9        1.0  0.8256993023364835  0.2664403853780262  0.07086449911691534  1.0000
  H   H10       1.0  0.6743006976581878  0.7664403861338421  0.42913550098939485  1.0000
  H   H11       1.0  0.17430069808668217  0.7335596136565246  0.9291355008484096  1.0000
  H   H12       1.0  0.3256993020746035  0.23355961537778977  0.5708644989731567  1.0000
  H   H13       1.0  0.6902556151538235  0.5807376215385889  0.010940829665638209  1.0000
  H   H14       1.0  0.8097443848408478  0.080737623259854  0.489059170440672  1.0000
  H   H15       1.0  0.30974438457896775  0.4192623774959619  0.9890591702969134  1.0000
  H   H16       1.0  0.19025561489194356  0.9192623782517778  0.5109408295218796  1.0000
  H   H17       1.0  0.6984296113816632  0.6778996129919574  0.9025878190770108  1.0000
  H   H18       1.0  0.8015703886187983  0.17789961223614154  0.5974121810901251  1.0000
  H   H19       1.0  0.3015703890415026  0.3221003885196744  0.09741218088831409  1.0000
  H   H20       1.0  0.198429611113993  0.8221003867984091  0.4025878188724265  1.0000
  H   H21       1.0  0.1692367518228108  0.40857260818057406  0.5763044809740108  1.0000
  H   H22       1.0  0.3307632477602753  0.9085726089363899  0.9236955192886259  1.0000
  H   H23       1.0  0.8307632480221552  0.5914273908539767  0.42369551943238454  1.0000
  H   H24       1.0  0.669236751972516  0.09142739257524188  0.07630448067392563  1.0000
  H   H25       1.0  0.19581192711153486  0.9614785759352232  0.7398672140837727  1.0000
  H   H26       1.0  0.30418807235937645  0.4614785751794074  0.7601327857350202  1.0000
  H   H27       1.0  0.8041880726212566  0.038521425576408586  0.26013278587877897  1.0000
  H   H28       1.0  0.6958119273734148  0.5385214238551433  0.2398672142275312  1.0000
  H   H29       1.0  0.03176025537772289  0.8423564527127285  0.7463545807352338  1.0000
  H   H30       1.0  0.46823974478356284  0.3423564519569126  0.7536454190863326  1.0000
  H   H31       1.0  0.9682397443550684  0.1576435463218222  0.25364541922731776  1.0000
  H   H32       1.0  0.5317602556396029  0.6576435470776382  0.2463545808789924  1.0000
  H   H33       1.0  0.7915524245289969  0.5959827182860536  0.6884391990688061  1.0000
  H   H34       1.0  0.70844757535929  0.09598272000731885  0.811560800654486  1.0000
  H   H35       1.0  0.20844757589416898  0.4040172807484971  0.31156080089651883  1.0000
  H   H36       1.0  0.2915524243735013  0.904017281504313  0.18843919930806552  1.0000
  H   H37       1.0  0.8811531519059647  0.898871185084593  0.706742203924722  1.0000
  H   H38       1.0  0.6188468479823221  0.3988711868058582  0.7932577957985701  1.0000
  H   H39       1.0  0.1188468478268267  0.10112881394995778  0.2932577960378295  1.0000
  H   H40       1.0  0.38115315175046915  0.6011288147057737  0.20674220416398145  1.0000
  H   H41       1.0  0.8298238282810564  0.5411502807029214  0.8451201074184149  1.0000
  H   H42       1.0  0.6701761717194052  0.04115027994710541  0.654879892748721  1.0000
  H   H43       1.0  0.17017617145173497  0.45884972080871056  0.1548798925441366  1.0000
  H   H44       1.0  0.32982382801338606  0.9588497215645265  0.3451201072138306  1.0000
  C   C1        1.0  0.8951582542727103  0.26490069367301783  0.941664001108946  1.0000
  C   C2        1.0  0.6048417456155764  0.7649006944288338  0.558335998614346  1.0000
  C   C3        1.0  0.10484174615045537  0.7350993053615329  0.05833599885637892  1.0000
  C   C4        1.0  0.39515825411721484  0.23509930708279808  0.44166400134820544  1.0000
  C   C5        1.0  0.8232571539451161  0.317178086471962  0.023702748265129015  1.0000
  C   C6        1.0  0.6767428459373803  0.817178087227778  0.4762972513973374  1.0000
  C   C7        1.0  0.17674284578767518  0.6828219125625887  0.9762972516974227  1.0000
  C   C8        1.0  0.323257153795411  0.1828219118067728  0.5237027485652141  1.0000
  C   C9        1.0  0.7483924273207376  0.4895275086119758  0.9910883303989588  1.0000
  C   C10       1.0  0.7516075725675491  0.9895275068907106  0.5089116693243333  1.0000
  C   C11       1.0  0.25160757310242815  0.5104724928996561  0.008911669566366184  1.0000
  C   C12       1.0  0.24839242716524215  0.01047249214384012  0.49108833063821816  1.0000
  C   C13       1.0  0.7532850943015843  0.5435676839968943  0.9316666945527796  1.0000
  C   C14       1.0  0.7467149056988773  0.04356768324107838  0.5683333056143564  1.0000
  C   C15       1.0  0.2467149061215815  0.4564323150376564  0.0683333054125454  1.0000
  C   C16       1.0  0.25328509403391397  0.9564323157934723  0.4316666943481952  1.0000
  C   C17       1.0  0.006877163973904274  0.5472789435559499  0.6660605768971464  1.0000
  C   C18       1.0  0.49312283560918185  0.047278942800133936  0.8339394233654904  1.0000
  C   C19       1.0  0.9931228357588872  0.45272105795568196  0.33393942306540525  1.0000
  C   C20       1.0  0.5068771641236094  0.9527210562344168  0.16606057659706117  1.0000
  C   C21       1.0  0.04724919899564385  0.4323868822420078  0.6179228886606051  1.0000
  C   C22       1.0  0.4527508012778166  0.9323868805207426  0.8820771116048048  1.0000
  C   C23       1.0  0.9527508014275219  0.5676131192696241  0.3820771113047199  1.0000
  C   C24       1.0  0.5472491984549747  0.06761311851380819  0.11792288835774652  1.0000
  C   C25       1.0  0.14012280255519205  0.500686588195831  0.6140366963575937  1.0000
  C   C26       1.0  0.3598771977182685  0.0006865899170962303  0.8859633039078163  1.0000
  C   C27       1.0  0.8598771978679737  0.4993134108387198  0.38596330360773123  1.0000
  C   C28       1.0  0.6401228021266976  0.9993134115945357  0.11403669649857892  1.0000
  C   C29       1.0  0.1935992662478463  0.6870794031905229  0.6586608987800047  1.0000
  C   C30       1.0  0.3064007339134394  0.18707940491178804  0.8413391010415616  1.0000
  C   C31       1.0  0.8064007341753195  0.31292059584402787  0.34133910118532035  1.0000
  C   C32       1.0  0.6935992658193518  0.8129205965998438  0.1586608989209898  1.0000
  C   C33       1.0  0.15445379742593046  0.8099420997501966  0.7059168236427633  1.0000
  C   C34       1.0  0.34554620204498077  0.30994209899438063  0.7940831761760294  1.0000
  C   C35       1.0  0.8455462023068607  0.1900579017614353  0.29408317631978814  1.0000
  C   C36       1.0  0.6544537976878104  0.6900579000401701  0.205916823786522  1.0000
  C   C37       1.0  0.06138516861228876  0.7406472165430186  0.7094516171402909  1.0000
  C   C38       1.0  0.43861483154899694  0.2406472157872027  0.7905483826812754  1.0000
  C   C39       1.0  0.9386148311205026  0.2593527849686132  0.29054838282226053  1.0000
  C   C40       1.0  0.5613851688741688  0.7593527857244292  0.2094516172840497  1.0000
  C   C41       1.0  0.8658544053924344  0.6321782811017452  0.7061868263985688  1.0000
  C   C42       1.0  0.6341455946080271  0.1321782803459293  0.7938131737685671  1.0000
  C   C43       1.0  0.13414559434035683  0.36782172040988664  0.2938131735639827  1.0000
  C   C44       1.0  0.36585440512476414  0.8678217186886213  0.2061868261939844  1.0000
  C   C45       1.0  0.8827691993900867  0.5035371983007634  0.7697553221525381  1.0000
  C   C46       1.0  0.6172308006103749  0.0035372000220285993  0.7302446780145979  1.0000
  C   C47       1.0  0.11723080034270465  0.4964628007337874  0.2302446778100135  1.0000
  C   C48       1.0  0.38276919981279084  0.9964628014896032  0.2697553219507271  1.0000
  N   N1        1.0  0.8251881657479454  0.4353568579325588  0.9069015304554914  1.0000
  N   N2        1.0  0.6748118342525162  0.9353568586883747  0.5930984697116445  1.0000
  N   N3        1.0  0.17481183398484598  0.5646431411019919  0.0930984695070601  1.0000
  N   N4        1.0  0.32518816628282426  0.06464314034617599  0.40690153069752427  1.0000
  N   N5        1.0  0.9662191464295637  0.1504207270075418  0.9171893590382572  1.0000
  N   N6        1.0  0.5337808534587228  0.6504207252862766  0.5828106406850349  1.0000
  N   N7        1.0  0.033780853303227415  0.84957927450409  0.08281064092429426  1.0000
  N   N8        1.0  0.46621914696444283  0.34957927374827413  0.41718935928029016  1.0000
  N   N9        1.0  0.8954177985655458  0.20520958034814565  0.0003364684879678332  1.0000
  N   N10       1.0  0.6045822013169507  0.7052095811039616  0.4996635311744986  1.0000
  N   N11       1.0  0.1045822011672455  0.7947904211634862  0.9996635314745836  1.0000
  N   N12       1.0  0.3954177984158405  0.29479042040767023  0.5003364687880529  1.0000
  O   O1        1.0  0.9157874596087294  0.4615146439577794  0.6665668152635638  1.0000
  O   O2        1.0  0.584212540391732  0.9615146422365143  0.8334331849035722  1.0000
  O   O3        1.0  0.08421254092661104  0.5384853575538525  0.33343318514560505  1.0000
  O   O4        1.0  0.4157874593410592  0.0384853567980365  0.16656681505897936  1.0000
  O   O5        1.0  0.9440155110533293  0.299374189685312  0.7889138059408701  1.0000
  O   O6        1.0  0.5559844889471324  0.7993741904411279  0.7110861942262656  1.0000
  O   O7        1.0  0.05598448936983654  0.7006258093492387  0.21108619402445472  1.0000
  O   O8        1.0  0.44401551078565893  0.20062581107050398  0.2889138057362859  1.0000
  O   O9        1.0  0.8232893256602951  0.6388624467383318  0.8003687512741453  1.0000
  O   O10       1.0  0.6767106743401665  0.13886244598251582  0.6996312488929904  1.0000
  O   O11       1.0  0.1767106740724962  0.36113755229621897  0.1996312486884061  1.0000
  O   O12       1.0  0.3232893260829993  0.8611375530520349  0.3003687510723345  1.0000
  Cl  Cl1       1.0  0.9809513724330208  0.2086877094164047  0.5618754210750134  1.0000
  Cl  Cl2       1.0  0.519048627455266  0.7086877076951394  0.9381245786482787  1.0000
  Cl  Cl3       1.0  0.019048627299770485  0.7913122920952272  0.43812457888753814  1.0000
  Cl  Cl4       1.0  0.4809513729678998  0.2913122913394113  0.06187542131704625  1.0000
  Cl  Cl5       1.0  0.31065278529155765  0.7665125955259391  0.6556518363359295  1.0000
  Cl  Cl6       1.0  0.18934721498190285  0.2665125947701232  0.8443481639294804  1.0000
  Cl  Cl7       1.0  0.6893472152437828  0.23348740350861164  0.34434816407323915  1.0000
  Cl  Cl8       1.0  0.8106527847508884  0.7334874042644276  0.15565183603307103  1.0000
