data_image0
_chemical_formula_structural       H26C26N4O12Cl2
_chemical_formula_sum              "H26 C26 N4 O12 Cl2"
_cell_length_a       6.537878922145747
_cell_length_b       7.19048021100503
_cell_length_c       14.977215210471133
_cell_angle_alpha    77.6220480223686
_cell_angle_beta     81.93262110854263
_cell_angle_gamma    87.56857136590956

_space_group_name_H-M_alt    "P 1"
_space_group_IT_number       1

loop_
  _space_group_symop_operation_xyz
  'x, y, z'

loop_
  _atom_site_type_symbol
  _atom_site_label
  _atom_site_symmetry_multiplicity
  _atom_site_fract_x
  _atom_site_fract_y
  _atom_site_fract_z
  _atom_site_occupancy
  H   H1        1.0  0.17858346022728705  0.741770861165292  0.10355370300799516  1.0000
  H   H2        1.0  0.8214165407349578  0.2582291399306231  0.8964462966599146  1.0000
  H   H3        1.0  0.3781725230209753  0.878507301837563  0.043698847178092685  1.0000
  H   H4        1.0  0.6218274762622671  0.12149269757172111  0.9563011531792833  1.0000
  H   H5        1.0  0.7964993104875056  0.0496418393793968  0.09380715334583195  1.0000
  H   H6        1.0  0.20350068879573682  0.9503581600298875  0.906192847011544  1.0000
  H   H7        1.0  0.11459473448507976  0.6803486781413515  0.2742948478329852  1.0000
  H   H8        1.0  0.8854052665356824  0.3196513215627657  0.7257051518345335  1.0000
  H   H9        1.0  0.6364600108214734  0.7731306212135344  0.40619342140432163  1.0000
  H   H10       1.0  0.3635399884617688  0.22686937819574982  0.5938065789530544  1.0000
  H   H11       1.0  0.8188026063079409  0.936379951933743  0.2535966968487449  1.0000
  H   H12       1.0  0.18119739444660213  0.06362004886138926  0.7464033035090023  1.0000
  H   H13       1.0  0.9166566680890859  0.018831618705317226  0.4376027323184895  1.0000
  H   H14       1.0  0.08334333119415654  0.9811683807039668  0.5623972680388865  1.0000
  H   H15       1.0  0.1603788170062428  0.22147250609784253  0.21960079076327982  1.0000
  H   H16       1.0  0.8396211824847015  0.7785274936122244  0.7803992089042587  1.0000
  H   H17       1.0  0.4226387606180996  0.3938051495531701  0.09562599445608272  1.0000
  H   H18       1.0  0.5773612388728447  0.606194850156897  0.9043740052114558  1.0000
  H   H19       1.0  0.827302892324811  0.41143095929090284  0.29719360581388576  1.0000
  H   H20       1.0  0.17269710695843135  0.5885690401183813  0.7028063945434904  1.0000
  H   H21       1.0  0.5659815028985493  0.2358232217705394  0.4215569622755395  1.0000
  H   H22       1.0  0.4340184965338775  0.7641767793313257  0.57844303739239  1.0000
  H   H23       1.0  0.06613998266494582  0.2506544873298259  0.04083994060092125  1.0000
  H   H24       1.0  0.9338600181481145  0.7493455120735083  0.9591600597564349  1.0000
  H   H25       1.0  0.1142185810447232  0.04196349252303136  0.09378747098921274  1.0000
  H   H26       1.0  0.8857814181800017  0.9580365082780504  0.9062125293685543  1.0000
  C   C1        1.0  0.5717348131546194  0.8987768175105858  0.17841960341029503  1.0000
  C   C2        1.0  0.428265186128623  0.10122318189869832  0.821580396947081  1.0000
  C   C3        1.0  0.37239260103037214  0.8238993617235877  0.18390904951447679  1.0000
  C   C4        1.0  0.6276073984605721  0.17610063798647943  0.8160909501530618  1.0000
  C   C5        1.0  0.26920957732527967  0.7356184850687106  0.26971672396771035  1.0000
  C   C6        1.0  0.7307904219579626  0.2643815143405734  0.7302832763896657  1.0000
  C   C7        1.0  0.36590199325595163  0.7177987315907473  0.34834451976097625  1.0000
  C   C8        1.0  0.6340980077648106  0.2822012681133699  0.6516554799065425  1.0000
  C   C9        1.0  0.5643263823956131  0.7868577939075052  0.3438732169965258  1.0000
  C   C10       1.0  0.43567361688762923  0.21314220550177884  0.6561267833608502  1.0000
  C   C11       1.0  0.6657320805962204  0.8779426362638203  0.25825455385326157  1.0000
  C   C12       1.0  0.3342679201583227  0.12205736453131183  0.7417454465044857  1.0000
  C   C13       1.0  0.1944876547259825  0.12237103688517284  0.4045926603684109  1.0000
  C   C14       1.0  0.805512346087078  0.8776289625181614  0.5954073399889453  1.0000
  C   C15       1.0  0.34712271220808427  0.22145059345111107  0.32851467307416143  1.0000
  C   C16       1.0  0.6528772872828599  0.778549406258956  0.671485326593377  1.0000
  C   C17       1.0  0.30558083481963977  0.2635342812267983  0.23673799101073936  1.0000
  C   C18       1.0  0.6944191659934207  0.7364657181765359  0.7632620093466169  1.0000
  C   C19       1.0  0.45063568019238825  0.35968790907017584  0.1672085446028166  1.0000
  C   C20       1.0  0.549364319298556  0.6403120906398913  0.8327914550647219  1.0000
  C   C21       1.0  0.6349137599719045  0.41368787219848063  0.19125776788948168  1.0000
  C   C22       1.0  0.3650862395190398  0.5863121275115863  0.8087422317780568  1.0000
  C   C23       1.0  0.6805710838787994  0.3699815989956682  0.2819220319431825  1.0000
  C   C24       1.0  0.31942891708344545  0.6300184021002468  0.7180779677247272  1.0000
  C   C25       1.0  0.5354655114995013  0.27247922870405533  0.3503749671736558  1.0000
  C   C26       1.0  0.464534487783741  0.7275207707052289  0.6496250331837202  1.0000
  N   N1        1.0  0.2790717536967027  0.8466889908083243  0.10370248248216672  1.0000
  N   N2        1.0  0.7209282473240597  0.15331100889579286  0.896297517185352  1.0000
  N   N3        1.0  0.7860677188507333  0.5193974589152511  0.1202361416424255  1.0000
  N   N4        1.0  0.21393228058169356  0.4806025421866138  0.879763858025504  1.0000
  O   O1        1.0  0.6607845322594263  0.985440763615159  0.09286307598229533  1.0000
  O   O2        1.0  0.33921546849511663  0.014559237179973124  0.9071369243754519  1.0000
  O   O3        1.0  0.01644005468954436  0.08776640352747962  0.3803440659114619  1.0000
  O   O4        1.0  0.9835599445936979  0.9122335958818044  0.6196559344459142  1.0000
  O   O5        1.0  0.23597534751428276  0.07851067850451228  0.4855451852207727  1.0000
  O   O6        1.0  0.7640246535064795  0.9214893211996048  0.514454814446746  1.0000
  O   O7        1.0  0.9497246073949988  0.5640495944264016  0.14342999701196782  1.0000
  O   O8        1.0  0.05027539341806172  0.4359504049769326  0.8565700033453885  1.0000
  O   O9        1.0  0.7472775275952002  0.5612566826265895  0.038795971490405416  1.0000
  O   O10       1.0  0.2527224731593428  0.43874331816854273  0.9612040288673418  1.0000
  O   O11       1.0  0.007753160954305617  0.1483607353675765  0.0915709151108854  1.0000
  O   O12       1.0  0.9922468400079393  0.8516392657283387  0.9084290845570243  1.0000
  Cl  Cl1       1.0  0.23350876217791247  0.6048423933899804  0.4535515325391306  1.0000
  Cl  Cl2       1.0  0.7664912373130317  0.39515760632008684  0.5464484671284079  1.0000
