data_image0
_chemical_formula_structural       H88C104N8O16
_chemical_formula_sum              "H88 C104 N8 O16"
_cell_length_a       8.188841114057231
_cell_length_b       21.653788179181348
_cell_length_c       11.557151804708587
_cell_angle_alpha    90.0
_cell_angle_beta     98.82038008111796
_cell_angle_gamma    90.0

_space_group_name_H-M_alt    "P 1"
_space_group_IT_number       1

loop_
  _space_group_symop_operation_xyz
  'x, y, z'

loop_
  _atom_site_type_symbol
  _atom_site_label
  _atom_site_symmetry_multiplicity
  _atom_site_fract_x
  _atom_site_fract_y
  _atom_site_fract_z
  _atom_site_occupancy
  H   H1        1.0  0.8647648801437539  0.09273317921944853  0.4388637798652964  1.0000
  H   H2        1.0  0.6352351193440234  0.5927331792383517  0.06113622083766554  1.0000
  H   H3        1.0  0.13523511956561202  0.9072668208183577  0.5611362205779957  1.0000
  H   H4        1.0  0.3647648803653424  0.40726682079945464  0.9388637796056265  1.0000
  H   H5        1.0  0.04405692360395155  0.10149279663282858  0.5407914388895129  1.0000
  H   H6        1.0  0.4559430763270028  0.6014927966517318  0.9592085612941096  1.0000
  H   H7        1.0  0.9559430773368061  0.8985072034049777  0.45920856081923406  1.0000
  H   H8        1.0  0.5440569233823631  0.39850720338607465  0.040791439149182616  1.0000
  H   H9        1.0  0.2665456363847373  0.2085764007030548  0.8683266989062817  1.0000
  H   H10       1.0  0.23345436354621707  0.7085764007219579  0.6316733012773407  1.0000
  H   H11       1.0  0.7334543645604095  0.7914235993347516  0.1316733016682017  1.0000
  H   H12       1.0  0.7665456361587597  0.29142359931584844  0.368326698300215  1.0000
  H   H13       1.0  0.23917066055992509  0.0072253408366865736  0.660541148144918  1.0000
  H   H14       1.0  0.26082933937102926  0.5072253408555898  0.8394588520387044  1.0000
  H   H15       1.0  0.7608293391494408  0.9927746592011198  0.33945885229837414  1.0000
  H   H16       1.0  0.7391706615741174  0.4927746591822166  0.1605411485357791  1.0000
  H   H17       1.0  0.7540918424031575  0.15488058266056212  0.9234308595007418  1.0000
  H   H18       1.0  0.7459081577743926  0.6548805826794653  0.5765691403640556  1.0000
  H   H19       1.0  0.24590815730181922  0.8451194169154314  0.07656914007681381  1.0000
  H   H20       1.0  0.25409184316636496  0.3451194168965281  0.42343085934469143  1.0000
  H   H21       1.0  0.9134695686913936  0.9271116094735429  0.7538623635410873  1.0000
  H   H22       1.0  0.5865304302547648  0.42711160945463983  0.7461376370582554  1.0000
  H   H23       1.0  0.08653043101797232  0.07288839056426338  0.24613763690220494  1.0000
  H   H24       1.0  0.413469569454601  0.5728883905831665  0.25386236338503676  1.0000
  H   H25       1.0  0.9742599546671644  0.20832593598274252  0.863181015212964  1.0000
  H   H26       1.0  0.5257400455103856  0.7083259360016456  0.6368189846518335  1.0000
  H   H27       1.0  0.02574004504220142  0.7916740635932509  0.1368189852303283  1.0000
  H   H28       1.0  0.4742599554303719  0.2916740640361607  0.36318101505691336  1.0000
  H   H29       1.0  0.5197233224569847  0.1648728559851911  0.8059643920793774  1.0000
  H   H30       1.0  0.9802766777205654  0.6648728560040943  0.69403560778542  1.0000
  H   H31       1.0  0.480276677247992  0.8351271440526152  0.1940356074981782  1.0000
  H   H32       1.0  0.01972332198441141  0.3351271440337121  0.30596439179213575  1.0000
  H   H33       1.0  0.5082655615320516  0.06308997893095898  0.7042400545549359  1.0000
  H   H34       1.0  0.9917344386454984  0.5630899789498621  0.7957599453098614  1.0000
  H   H35       1.0  0.4917344381729251  0.9369100211068474  0.2957599450226197  1.0000
  H   H36       1.0  0.008265561059478321  0.4369100210879442  0.2042400542676942  1.0000
  H   H37       1.0  0.6777998784110782  0.06604401263031413  0.02750330402689147  1.0000
  H   H38       1.0  0.8222001223124799  0.5660440126492173  0.47249669680726175  1.0000
  H   H39       1.0  0.3222001225340683  0.9339559874074922  0.972496696547592  1.0000
  H   H40       1.0  0.17779987739688602  0.433955987388589  0.5275033036360304  1.0000
  H   H41       1.0  0.7750747923801415  0.8824259345240533  0.9134224062514412  1.0000
  H   H42       1.0  0.7249252078017978  0.3824259345051501  0.5865775944790926  1.0000
  H   H43       1.0  0.22492520732922436  0.11757406551375307  0.08657759419185088  1.0000
  H   H44       1.0  0.27507479314334893  0.6175740655326563  0.4134224060953908  1.0000
  H   H45       1.0  0.6494775624834085  0.9527852438233281  0.04597442090078708  1.0000
  H   H46       1.0  0.85052243699998  0.4527852438044248  0.45402557893643836  1.0000
  H   H47       1.0  0.3505224372215684  0.04721475621447833  0.9540255786767686  1.0000
  H   H48       1.0  0.149477562709386  0.5472147562333816  0.5459744215068538  1.0000
  H   H49       1.0  0.4045569156399096  0.029917186066447048  0.38378983166635583  1.0000
  H   H50       1.0  0.09544308359688299  0.5299171860853502  0.1162101684896946  1.0000
  H   H51       1.0  0.5954430840650672  0.9700828139713594  0.6162101679111998  1.0000
  H   H52       1.0  0.9045569161124829  0.47008281395245616  0.8837898319535974  1.0000
  H   H53       1.0  0.5804517255602191  0.049708810813752696  0.453275278765985  1.0000
  H   H54       1.0  0.9195482739231692  0.5497088108326559  0.04672472107124045  1.0000
  H   H55       1.0  0.4195482741447577  0.9502911892240536  0.5467247208115708  1.0000
  H   H56       1.0  0.08045172578619669  0.45029118920515043  0.9532752793720518  1.0000
  H   H57       1.0  0.533279679291927  0.0964317025141854  0.283889332367241  1.0000
  H   H58       1.0  0.9667203214272421  0.5964317025330886  0.2161106676011757  1.0000
  H   H59       1.0  0.4667203216488305  0.903568297523621  0.716110667341506  1.0000
  H   H60       1.0  0.03327967828212385  0.4035682975047178  0.7838893328421165  1.0000
  H   H61       1.0  0.02666901787238533  0.16812016446618958  0.25193169783446884  1.0000
  H   H62       1.0  0.47333098259579887  0.6681201644850927  0.24806830158703638  1.0000
  H   H63       1.0  0.9733309818325915  0.8318798355716168  0.7480683017430868  1.0000
  H   H64       1.0  0.5266690183449586  0.3318798355527136  0.7519316981217106  1.0000
  H   H65       1.0  0.4565598045297648  0.20079795248853236  0.08099807917437112  1.0000
  H   H66       1.0  0.04344019470702772  0.7007979525074356  0.4190019209816793  1.0000
  H   H67       1.0  0.5434401951796011  0.799202047549274  0.9190019212689211  1.0000
  H   H68       1.0  0.9565598049979491  0.29920204753037083  0.5809980785958763  1.0000
  H   H69       1.0  0.46546591444405255  0.28690604889046606  0.9387288513192243  1.0000
  H   H70       1.0  0.03453408548251267  0.7869060489093692  0.5612711479986615  1.0000
  H   H71       1.0  0.5345340864967049  0.7130939511473403  0.06127114838952259  1.0000
  H   H72       1.0  0.9654659142224642  0.21309395112843713  0.43872885157889413  1.0000
  H   H73       1.0  0.735844190576885  0.33632169483405977  0.9209001430378615  1.0000
  H   H74       1.0  0.7641558096050544  0.8363216948529629  0.5790998576926725  1.0000
  H   H75       1.0  0.26415580913248093  0.6636783052037466  0.07909985740543071  1.0000
  H   H76       1.0  0.23584419010431162  0.16367830518484341  0.4209001427506197  1.0000
  H   H77       1.0  0.02707202599101923  0.34304748381817946  0.9730832239215665  1.0000
  H   H78       1.0  0.4729279739355459  0.8430474838370827  0.5269167753963193  1.0000
  H   H79       1.0  0.9729279737139575  0.6569525162196269  0.02691677565598908  1.0000
  H   H80       1.0  0.5270720270052116  0.1569525162007237  0.4730832243124276  1.0000
  H   H81       1.0  0.2920991363845411  0.3066290634718411  0.08857257812929094  1.0000
  H   H82       1.0  0.20790086408364306  0.8066290634907443  0.4114274212922143  1.0000
  H   H83       1.0  0.7079008633204357  0.6933709365659653  0.9114274214482647  1.0000
  H   H84       1.0  0.7920991368571145  0.19337093654706208  0.5885725784165327  1.0000
  H   H85       1.0  0.2892818933861696  0.21756032944523362  0.22602186158878157  1.0000
  H   H86       1.0  0.2107181070864037  0.7175603294641368  0.27397813869846016  1.0000
  H   H87       1.0  0.7107181063188072  0.7824396705925727  0.773978137988774  1.0000
  H   H88       1.0  0.7892818938587429  0.28243967057366953  0.7260218618760232  1.0000
  C   C1        1.0  0.8744316528137428  0.020611882147674815  0.8029612972938528  1.0000
  C   C2        1.0  0.6255683461280264  0.520611882166578  0.6970387024397534  1.0000
  C   C3        1.0  0.1255683468912339  0.9793881178901315  0.19703870228370293  1.0000
  C   C4        1.0  0.3744316535769503  0.4793881178712283  0.3029612971378023  1.0000
  C   C5        1.0  0.1048193095640164  0.07623598034394417  0.7407605658845975  1.0000
  C   C6        1.0  0.3951806903625488  0.5762359803628474  0.7592394334332884  1.0000
  C   C7        1.0  0.8951806901409602  0.9237640192320493  0.25923943369295815  1.0000
  C   C8        1.0  0.6048193093424279  0.42376401967495897  0.24076056614426727  1.0000
  C   C9        1.0  0.8598531078699081  0.05142437899483039  0.5988759037801173  1.0000
  C   C10       1.0  0.640146892307642  0.5514243790137335  0.90112409608468  1.0000
  C   C11       1.0  0.14014689183945786  0.9485756210429759  0.4011240966631748  1.0000
  C   C12       1.0  0.35985310739733467  0.4485756210240728  0.0988759034928757  1.0000
  C   C13       1.0  0.8137860855344955  0.06134927196143948  0.8816443860165329  1.0000
  C   C14       1.0  0.6862139146430546  0.5613492719803427  0.6183556138482645  1.0000
  C   C15       1.0  0.186213915406262  0.938650728076367  0.11835561369221406  1.0000
  C   C16       1.0  0.3137860850619222  0.4386507280574637  0.3816443857292912  1.0000
  C   C17       1.0  0.10930994949643211  0.13297411686922944  0.8014060423519955  1.0000
  C   C18       1.0  0.390690051670303  0.6329741168881327  0.6985939579628181  1.0000
  C   C19       1.0  0.8906900514487146  0.867025883168577  0.198593958222488  1.0000
  C   C20       1.0  0.6093099492704545  0.3670258831496737  0.3014060417459287  1.0000
  C   C21       1.0  0.26194968672742996  0.1642332150186596  0.8230626796521161  1.0000
  C   C22       1.0  0.2380503144393051  0.6642332150375627  0.6769373206626975  1.0000
  C   C23       1.0  0.7380503142133276  0.8357667850191468  0.1769373200566308  1.0000
  C   C24       1.0  0.7619496865058416  0.3357667850002436  0.32306267991178594  1.0000
  C   C25       1.0  0.2475101324736195  0.051085545902934994  0.7071351542747231  1.0000
  C   C26       1.0  0.2524898674529457  0.5510855459218382  0.7928648450431628  1.0000
  C   C27       1.0  0.7524898684671381  0.9489144541348714  0.29286484543402386  1.0000
  C   C28       1.0  0.747510132252031  0.44891445411596814  0.20713515453439288  1.0000
  C   C29       1.0  0.8396440613379528  0.12767928812835208  0.8805482248439842  1.0000
  C   C30       1.0  0.6603559388395972  0.6276792881472553  0.6194517750208132  1.0000
  C   C31       1.0  0.1603559396071938  0.8723207119094543  0.11945177573049919  1.0000
  C   C32       1.0  0.3396440608653795  0.3723207118905511  0.3805482245567425  1.0000
  C   C33       1.0  0.8615921272437215  0.956820548374982  0.8149670583179598  1.0000
  C   C34       1.0  0.6384078729382179  0.45682054835607877  0.685032942412574  1.0000
  C   C35       1.0  0.13840787246564448  0.04317945166282442  0.18503294212533225  1.0000
  C   C36       1.0  0.36159212677114805  0.5431794516817275  0.31496705803071817  1.0000
  C   C37       1.0  0.967377513321115  0.15878560654369486  0.8455991326004223  1.0000
  C   C38       1.0  0.5326224856206543  0.6587856065625981  0.6544008671331839  1.0000
  C   C39       1.0  0.032622486383861705  0.8412143934941115  0.15440086697713334  1.0000
  C   C40       1.0  0.46737751408871164  0.3412143934752084  0.34559913331010833  1.0000
  C   C41       1.0  0.4036912582669932  0.13950244802451023  0.7888658283987924  1.0000
  C   C42       1.0  0.09630874166396117  0.6395024480434134  0.7111341717848301  1.0000
  C   C43       1.0  0.5963087426781535  0.8604975520132963  0.2111341721756911  1.0000
  C   C44       1.0  0.9036912580410155  0.360497551994393  0.2888658277927256  1.0000
  C   C45       1.0  0.3974702458165959  0.08249114313020547  0.7313425573177513  1.0000
  C   C46       1.0  0.10252975411435843  0.5824911431491087  0.7686574428658711  1.0000
  C   C47       1.0  0.6025297551241616  0.917508856907601  0.2686574423909957  1.0000
  C   C48       1.0  0.8974702455950075  0.4175088568886977  0.2313425575774211  1.0000
  C   C49       1.0  0.7294980947886323  0.03533514014585355  0.9675642149447446  1.0000
  C   C50       1.0  0.7705019053889178  0.5353351401647568  0.5324357849200528  1.0000
  C   C51       1.0  0.27050190491634446  0.9646648598919527  0.0324357846328111  1.0000
  C   C52       1.0  0.22949809432044807  0.4646648598730497  0.46756421552323935  1.0000
  C   C53       1.0  0.7834011911440981  0.932227929033116  0.9034605045608142  1.0000
  C   C54       1.0  0.7165988090334521  0.432227929014213  0.5965394953039832  1.0000
  C   C55       1.0  0.21659880856087868  0.06777207100469021  0.09653949501674149  1.0000
  C   C56       1.0  0.28340119191169466  0.5677720710235934  0.4034605052705002  1.0000
  C   C57       1.0  0.7141590522350406  0.9717708807288952  0.9783709087364552  1.0000
  C   C58       1.0  0.7858409479425095  0.471770880709992  0.5216290911283423  1.0000
  C   C59       1.0  0.2858409474743252  0.028229119308911137  0.021629091706837123  1.0000
  C   C60       1.0  0.21415905176246736  0.5282291193278144  0.4783709084492133  1.0000
  C   C61       1.0  0.7162352955142174  0.20021695114613927  0.14104090366195793  1.0000
  C   C62       1.0  0.783764703969171  0.7002169511650425  0.3589590961752675  1.0000
  C   C63       1.0  0.2837647041951486  0.7997830488916672  0.8589590967813343  1.0000
  C   C64       1.0  0.21623529573580577  0.2997830488727639  0.6410409034022881  1.0000
  C   C65       1.0  0.8739353576445826  0.2264193137676365  0.1287851669514018  1.0000
  C   C66       1.0  0.6260646418388058  0.7264193137865397  0.3712148328858237  1.0000
  C   C67       1.0  0.12606464206478338  0.7735806862701698  0.8712148334918903  1.0000
  C   C68       1.0  0.373935357866171  0.2735806862512667  0.6287851666917319  1.0000
  C   C69       1.0  0.8774652528158273  0.2764276001256376  0.047319697643744815  1.0000
  C   C70       1.0  0.6225347479033417  0.7764276001445407  0.45268030232467193  1.0000
  C   C71       1.0  0.1225347468891495  0.7235723999121688  0.952680301933811  1.0000
  C   C72       1.0  0.37746525304180484  0.2235723998932656  0.5473196982498115  1.0000
  C   C73       1.0  0.02732489041875803  0.20607089729870534  0.19098640872616207  1.0000
  C   C74       1.0  0.47267511005381535  0.7060708973176085  0.3090135915610796  1.0000
  C   C75       1.0  0.9726751092862187  0.7939291027391009  0.8090135908513936  1.0000
  C   C76       1.0  0.5273248896555506  0.2939291027201978  0.6909864088822125  1.0000
  C   C77       1.0  0.5741692005800741  0.22201423927394084  0.07169066059717824  1.0000
  C   C78       1.0  0.9258308001390949  0.722014239292844  0.4283093393712385  1.0000
  C   C79       1.0  0.4258307991292918  0.7779857607638655  0.9283093398461139  1.0000
  C   C80       1.0  0.07416920080166259  0.27798576074496234  0.5716906603375085  1.0000
  C   C81       1.0  0.5790515341253382  0.27067450422531975  0.9916551681515321  1.0000
  C   C82       1.0  0.9209484660566011  0.7706745042442229  0.5083448325790019  1.0000
  C   C83       1.0  0.4209484655840277  0.7293254953506737  0.008344832291760093  1.0000
  C   C84       1.0  0.07905153488854562  0.22932549533177052  0.49165516799548165  1.0000
  C   C85       1.0  0.7283499899946763  0.29784619239051924  0.9810078154872095  1.0000
  C   C86       1.0  0.7716500101828737  0.7978461924094224  0.518992184377588  1.0000
  C   C87       1.0  0.2716500109460812  0.7021538071854742  0.018992184221537582  1.0000
  C   C88       1.0  0.22834998952649216  0.20215380762838392  0.48100781606570414  1.0000
  C   C89       1.0  0.03008403334418277  0.30438080466386  0.033703689399823517  1.0000
  C   C90       1.0  0.46991596712839057  0.8043808046827633  0.4662963108874182  1.0000
  C   C91       1.0  0.9699159676009639  0.6956191953739463  0.96629631117466  1.0000
  C   C92       1.0  0.5300840325809753  0.19561919535504313  0.533703689555874  1.0000
  C   C93       1.0  0.6958182557900368  0.15174089460979584  0.2290698062109425  1.0000
  C   C94       1.0  0.8041817449291324  0.6517408946286991  0.27093019375747424  1.0000
  C   C95       1.0  0.30418174391494  0.8482591054280105  0.7709301933666131  1.0000
  C   C96       1.0  0.1958182560160143  0.3482591054091074  0.7290698068170092  1.0000
  C   C97       1.0  0.17596297230170133  0.28406178859335957  0.09763800116753009  1.0000
  C   C98       1.0  0.32403702693509123  0.7840617881504498  0.4023619989885204  1.0000
  C   C99       1.0  0.8240370274076645  0.7159382114444468  0.902361999275762  1.0000
  C   C100      1.0  0.6759629727698855  0.21593821142554367  0.5976380005890353  1.0000
  C   C101      1.0  0.17383888880453152  0.23415976308823833  0.17603493644188034  1.0000
  C   C102      1.0  0.32616111043226104  0.7341597631071415  0.3239650637141701  1.0000
  C   C103      1.0  0.8261611109004451  0.765840236949568  0.8239650631356753  1.0000
  C   C104      1.0  0.6738388892771049  0.26584023693066483  0.676034936729122  1.0000
  N   N1        1.0  0.9494109987404631  0.04552115370499879  0.7090160251512135  1.0000
  N   N2        1.0  0.550589001441476  0.545521153723902  0.7909839755793204  1.0000
  N   N3        1.0  0.050589000968902766  0.9544788463328076  0.2909839752920786  1.0000
  N   N4        1.0  0.4494109982678898  0.45447884631390434  0.20901602486397186  1.0000
  N   N5        1.0  0.9329106481106582  0.08076475651874222  0.5176777725449285  1.0000
  N   N6        1.0  0.5670893520668918  0.5807647565376454  0.9823222273198688  1.0000
  N   N7        1.0  0.06708935159431859  0.9192352435190642  0.4823222270326271  1.0000
  N   N8        1.0  0.43291064887825476  0.41923524350016095  0.017677773254614615  1.0000
  O   O1        1.0  0.7149534748422522  0.029809083041672353  0.5746122727049865  1.0000
  O   O2        1.0  0.785046524099517  0.5298090830605755  0.9253877270286197  1.0000
  O   O3        1.0  0.2850465248671136  0.970190916996134  0.4253877277383057  1.0000
  O   O4        1.0  0.2149534756054597  0.47019091697723087  0.07461227254893599  1.0000
  O   O5        1.0  0.49394442288864987  0.0609922457480108  0.38601787209596666  1.0000
  O   O6        1.0  0.006055577583923461  0.560992245766914  0.11398212819127504  1.0000
  O   O7        1.0  0.5060555780521078  0.9390077542897957  0.6139821276127803  1.0000
  O   O8        1.0  0.9939444221254424  0.4390077542708924  0.8860178722520171  1.0000
  O   O9        1.0  0.5472937603555783  0.12605858972169912  0.2146549234395251  1.0000
  O   O10       1.0  0.95270623912781  0.6260585897406024  0.28534507639770035  1.0000
  O   O11       1.0  0.4527062393537876  0.8739414103161073  0.785345077003767  1.0000
  O   O12       1.0  0.04729376057716671  0.37394141029720407  0.7146549231798552  1.0000
  O   O13       1.0  0.8066970739073982  0.13738403947537225  0.3107440963907611  1.0000
  O   O14       1.0  0.6933029268117709  0.6373840394942755  0.18925590357765562  1.0000
  O   O15       1.0  0.19330292703335927  0.8626159605624342  0.6892559033179858  1.0000
  O   O16       1.0  0.3066970728975951  0.3626159605435309  0.8107440968656366  1.0000
