data_image0
_chemical_formula_structural       H112C136N12O20Cl4
_chemical_formula_sum              "H112 C136 N12 O20 Cl4"
_cell_length_a       4.783956837923373
_cell_length_b       23.685321544004694
_cell_length_c       24.43235511815821
_cell_angle_alpha    90.0
_cell_angle_beta     100.11171123185896
_cell_angle_gamma    90.0

_space_group_name_H-M_alt    "P 1"
_space_group_IT_number       1

loop_
  _space_group_symop_operation_xyz
  'x, y, z'

loop_
  _atom_site_type_symbol
  _atom_site_label
  _atom_site_symmetry_multiplicity
  _atom_site_fract_x
  _atom_site_fract_y
  _atom_site_fract_z
  _atom_site_occupancy
  H   H1        1.0  0.9856832923666226  0.45627369930029515  0.597746542603027  1.0000
  H   H2        1.0  0.01431670800307221  0.9562736992157557  0.9022534576702442  1.0000
  H   H3        1.0  0.014316708956182526  0.5437263005306258  0.4022534575668154  1.0000
  H   H4        1.0  0.9856832912293095  0.04372630061516528  0.09774654249948281  1.0000
  H   H5        1.0  0.8875550006972031  0.4377935009552238  0.525997806051008  1.0000
  H   H6        1.0  0.11244499930028712  0.9377935012928866  0.9740021938065122  1.0000
  H   H7        1.0  0.11244499816297424  0.5622064988756972  0.4740021937029681  1.0000
  H   H8        1.0  0.8875550020225178  0.06220649896023671  0.02599780636333012  1.0000
  H   H9        1.0  0.1807792114247632  0.4853219277029259  0.5480436234341708  1.0000
  H   H10       1.0  0.8192207885727267  0.9853219280405887  0.9519563764233493  1.0000
  H   H11       1.0  0.8192207898980416  0.514678072127995  0.4519563767356715  1.0000
  H   H12       1.0  0.18077921028745045  0.014678072212534499  0.048043623330626686  1.0000
  H   H13       1.0  0.3975311090243273  0.39374948415512007  0.3903896113944073  1.0000
  H   H14       1.0  0.6024688911611648  0.8937494840705805  0.10961038867189096  1.0000
  H   H15       1.0  0.6024688919262731  0.6062505156758008  0.609610388359684  1.0000
  H   H16       1.0  0.3975311080712171  0.10625051576034038  0.8903896114978362  1.0000
  H   H17       1.0  0.15927292124225395  0.43411905727759376  0.46314523987853945  1.0000
  H   H18       1.0  0.8407270785710337  0.9341190571930543  0.03685475977200777  1.0000
  H   H19       1.0  0.8407270776179234  0.5658809425533271  0.5368547598754367  1.0000
  H   H20       1.0  0.1592729223795667  0.06588094263786665  0.9631452399820836  1.0000
  H   H21       1.0  0.616633055024203  0.3211447438392645  0.5861599381777481  1.0000
  H   H22       1.0  0.3833669449732871  0.821144743754725  0.913840061679772  1.0000
  H   H23       1.0  0.3833669462986018  0.6788552559916564  0.41384006199209417  1.0000
  H   H24       1.0  0.6166330538868904  0.17885525607619596  0.08615993807420408  1.0000
  H   H25       1.0  0.08343661480060585  0.1886722745856557  0.4060103335372587  1.0000
  H   H26       1.0  0.9165633853848864  0.6886722745011161  0.09398966652903956  1.0000
  H   H27       1.0  0.916563386522199  0.8113277256674676  0.5939896666325837  1.0000
  H   H28       1.0  0.08343661347529115  0.3113277257520072  0.9060103332249365  1.0000
  H   H29       1.0  0.30167188119595195  0.2484018956242224  0.40372672659749287  1.0000
  H   H30       1.0  0.6983281189895403  0.7484018955396827  0.09627327346880545  1.0000
  H   H31       1.0  0.6983281180364299  0.751598104628901  0.5962732735722344  1.0000
  H   H32       1.0  0.3016718819610601  0.251598104291238  0.9037267262852857  1.0000
  H   H33       1.0  0.32729661930344617  0.2093635258777054  0.46624686803142446  1.0000
  H   H34       1.0  0.6727033808820461  0.7093635257931659  0.03375313203487381  1.0000
  H   H35       1.0  0.6727033799289357  0.790636474375418  0.5337531321383028  1.0000
  H   H36       1.0  0.32729661835033574  0.29063647445995744  0.9662468681348533  1.0000
  H   H37       1.0  0.7159136535076341  0.1641393131512739  0.6413249688336592  1.0000
  H   H38       1.0  0.28408634686206047  0.6641393130667343  0.8586750314396121  1.0000
  H   H39       1.0  0.2840863478151707  0.8358606871018495  0.35867503133618317  1.0000
  H   H40       1.0  0.7159136523703215  0.33586068718638895  0.1413249687301151  1.0000
  H   H41       1.0  0.11675330181498632  0.26728633589534123  0.5880382154018804  1.0000
  H   H42       1.0  0.8832466985547084  0.767286336233004  0.9119617848713909  1.0000
  H   H43       1.0  0.8832466995078185  0.7327136639355797  0.411961784767962  1.0000
  H   H44       1.0  0.11675330067767348  0.23271366402011923  0.08803821529833623  1.0000
  H   H45       1.0  0.22300792681938078  0.21246537314895753  0.5471468834678357  1.0000
  H   H46       1.0  0.7769920731781096  0.7124653730644179  0.9528531163896846  1.0000
  H   H47       1.0  0.7769920741312197  0.7875346266819633  0.4528531162862557  1.0000
  H   H48       1.0  0.2230079256820679  0.28753462676650293  0.04714688336429154  1.0000
  H   H49       1.0  0.7199852546546577  0.14201467705433882  0.2616621935481858  1.0000
  H   H50       1.0  0.28001474553083444  0.6420146769697993  0.23833780651811245  1.0000
  H   H51       1.0  0.28001474457772424  0.8579853231987845  0.7383378066215415  1.0000
  H   H52       1.0  0.7199852554197661  0.35798532286112167  0.761662193235979  1.0000
  H   H53       1.0  0.6213170148598033  0.2027741853146044  0.3386833415171667  1.0000
  H   H54       1.0  0.37868298532568884  0.7027741856522672  0.16131665854913155  1.0000
  H   H55       1.0  0.3786829843725786  0.7972258145163165  0.6613166586525605  1.0000
  H   H56       1.0  0.6213170156249116  0.297225814600856  0.8386833412049597  1.0000
  H   H57       1.0  0.16441292920308287  0.3322354693551481  0.289933999635699  1.0000
  H   H58       1.0  0.8355870709824093  0.8322354692706084  0.21006600043059925  1.0000
  H   H59       1.0  0.8355870721197219  0.6677645304757728  0.7100660005341433  1.0000
  H   H60       1.0  0.1644129282499727  0.16776453056031235  0.7899339997391279  1.0000
  H   H61       1.0  0.27720817964510636  0.27020130539962794  0.2154215460272805  1.0000
  H   H62       1.0  0.7227918205403858  0.7702013057372908  0.2845784540390177  1.0000
  H   H63       1.0  0.7227918195872755  0.7297986944312929  0.7845784541424466  1.0000
  H   H64       1.0  0.27720818041021467  0.22979869451583249  0.7154215457150735  1.0000
  H   H65       1.0  0.36827309852216533  0.054447041286903135  0.1741049401060979  1.0000
  H   H66       1.0  0.6317269016633268  0.5544470412023635  0.3258950599602004  1.0000
  H   H67       1.0  0.631726900338012  0.9455529585440177  0.8258950596478782  1.0000
  H   H68       1.0  0.368273099659478  0.4455529586285573  0.6741049402096418  1.0000
  H   H69       1.0  0.6696547313901594  0.996888152273223  0.12358883422629167  1.0000
  H   H70       1.0  0.3303452687953327  0.4968881519355602  0.37641116584000656  1.0000
  H   H71       1.0  0.330345269560441  0.0031118479799002972  0.8764111655277996  1.0000
  H   H72       1.0  0.6696547304370492  0.5031118478953607  0.6235888343297206  1.0000
  H   H73       1.0  0.013675760754474455  0.927073015209206  0.17570759835073937  1.0000
  H   H74       1.0  0.9863242394310177  0.4270730152937457  0.32429240171555884  1.0000
  H   H75       1.0  0.9863242381057029  0.07292698462171478  0.8242924014032368  1.0000
  H   H76       1.0  0.013675761891787248  0.5729269849593777  0.6757075984542834  1.0000
  H   H77       1.0  0.023238591927130688  0.9121841394409452  0.27630945114545113  1.0000
  H   H78       1.0  0.976761407886157  0.41218413910328233  0.22369054850509604  1.0000
  H   H79       1.0  0.9767614090234696  0.08781586081217813  0.7236905486086401  1.0000
  H   H80       1.0  0.023238590974020604  0.5878158607276386  0.7763094512488802  1.0000
  H   H81       1.0  0.14499230416578487  0.0676525402884217  0.25362914225168987  1.0000
  H   H82       1.0  0.8550076960197072  0.5676525402038822  0.2463708578146084  1.0000
  H   H83       1.0  0.8550076967848156  0.9323474595424992  0.7463708575024015  1.0000
  H   H84       1.0  0.14499230321267476  0.43234745962703874  0.7536291423551189  1.0000
  H   H85       1.0  0.2403676581730759  0.10140893783255299  0.3457829939171977  1.0000
  H   H86       1.0  0.7596323416402118  0.6014089377480134  0.15421700573334954  1.0000
  H   H87       1.0  0.7596323427775246  0.8985910619983679  0.6542170058368936  1.0000
  H   H88       1.0  0.24036765721996567  0.3985910620829074  0.8457829940206266  1.0000
  H   H89       1.0  0.18878216711075568  0.9662590755831652  0.41091684180989807  1.0000
  H   H90       1.0  0.8112178330747365  0.46625907566770464  0.08908315825640023  1.0000
  H   H91       1.0  0.8112178317494217  0.033740924247755766  0.5890831579440782  1.0000
  H   H92       1.0  0.1887821682480685  0.5337409241632162  0.9109168419134422  1.0000
  H   H93       1.0  0.34792019080855047  0.04043705373476057  0.48127602922883  1.0000
  H   H94       1.0  0.652079809004737  0.540437053650221  0.018723970421717164  1.0000
  H   H95       1.0  0.6520798101420499  0.9595629465183627  0.5187239705252613  1.0000
  H   H96       1.0  0.3479201898554404  0.4595629466029023  0.9812760293322591  1.0000
  H   H97       1.0  0.03257329962722797  0.12446869486330565  0.4877385189674017  1.0000
  H   H98       1.0  0.9674267005582642  0.6244686952009686  0.012261481098896578  1.0000
  H   H99       1.0  0.9674266996051539  0.8755313049676152  0.5122614812023255  1.0000
  H   H100      1.0  0.032573300764540715  0.37553130505215476  0.9877385190709457  1.0000
  H   H101      1.0  0.5959101485950448  0.13682597823208836  0.41950253683263805  1.0000
  H   H102      1.0  0.40408985159044736  0.6368259781475488  0.08049746323366018  1.0000
  H   H103      1.0  0.4040898506373371  0.8631740220210349  0.5804974633370891  1.0000
  H   H104      1.0  0.595910149360153  0.3631740221055745  0.9195025365204311  1.0000
  H   H105      1.0  0.7572980827570461  0.9417884772455754  0.4405226279782886  1.0000
  H   H106      1.0  0.24270191742844593  0.44178847690791245  0.05947737208800964  1.0000
  H   H107      1.0  0.24270191610313127  0.058211523007547936  0.5594773717756876  1.0000
  H   H108      1.0  0.757298083894359  0.5582115229230084  0.9405226280818327  1.0000
  H   H109      1.0  0.5377113352161955  0.8809399944701829  0.43483311636491184  1.0000
  H   H110      1.0  0.4622886649692966  0.3809399941325201  0.06516688370138643  1.0000
  H   H111      1.0  0.4622886657344049  0.11906000578294033  0.5651668833891795  1.0000
  H   H112      1.0  0.5377113342630855  0.6190600056984008  0.9348331164683409  1.0000
  C   C1        1.0  0.007591715521764454  0.20244327614854396  0.23479280367142208  1.0000
  C   C2        1.0  0.9924082846637275  0.7024432760640044  0.26520719639487617  1.0000
  C   C3        1.0  0.9924082858010406  0.7975567236823768  0.7652071964984203  1.0000
  C   C4        1.0  0.0075917145686542065  0.2975567237669165  0.734792803774851  1.0000
  C   C5        1.0  0.13515445936353807  0.2555639394109127  0.24263333608868168  1.0000
  C   C6        1.0  0.8648455408219541  0.755563939326373  0.2573666639776166  1.0000
  C   C7        1.0  0.8648455394966393  0.7444360604200082  0.7573666636652945  1.0000
  C   C8        1.0  0.13515446050085086  0.24443606050454778  0.7426333361922258  1.0000
  C   C9        1.0  0.07121885605994122  0.29020179005084473  0.28462545300787767  1.0000
  C   C10       1.0  0.928781144125551  0.7902017899663053  0.21537454705842057  1.0000
  C   C11       1.0  0.9287811431724405  0.7097982102022786  0.7153745471618495  1.0000
  C   C12       1.0  0.07121885719725414  0.20979820986461567  0.7846254531114218  1.0000
  C   C13       1.0  0.8894677814963748  0.271375061050289  0.32007805441223697  1.0000
  C   C14       1.0  0.1105322186891172  0.771375061387952  0.17992194565406125  1.0000
  C   C15       1.0  0.11053221982643  0.7286249387806318  0.6799219457576053  1.0000
  C   C16       1.0  0.8894677805432646  0.2286249388651714  0.820078054515666  1.0000
  C   C17       1.0  0.7951988119361023  0.3138676186510008  0.35804422946511044  1.0000
  C   C18       1.0  0.20480118615896686  0.8138676185664613  0.14195577060107267  1.0000
  C   C19       1.0  0.20480118692407517  0.6861323816021224  0.6419557702888657  1.0000
  C   C20       1.0  0.795198813073415  0.18613238168666202  0.8580442295686544  1.0000
  C   C21       1.0  0.6387984429030804  0.33388582693747504  0.44675425132270596  1.0000
  C   C22       1.0  0.3612015572824117  0.8338858268529354  0.05324574874359228  1.0000
  C   C23       1.0  0.36120155632930157  0.6661141728934459  0.5532457488470213  1.0000
  C   C24       1.0  0.6387984440403932  0.16611417297798542  0.9467542514262501  1.0000
  C   C25       1.0  0.7023568050740544  0.3128911641005726  0.5017702302355339  1.0000
  C   C26       1.0  0.2976431952956402  0.812891164016033  0.9982297700377374  1.0000
  C   C27       1.0  0.2976431941583275  0.6871088361525507  0.4982297699341933  1.0000
  C   C28       1.0  0.7023568060271645  0.18710883581488783  0.0017702301321049327  1.0000
  C   C29       1.0  0.5705168311713843  0.3358576131305918  0.5432782645795815  1.0000
  C   C30       1.0  0.4294831691983106  0.8358576134682547  0.9567217356936899  1.0000
  C   C31       1.0  0.4294831701514208  0.6641423867003291  0.45672173559026097  1.0000
  C   C32       1.0  0.5705168300340714  0.16414238678486862  0.04327826447603733  1.0000
  C   C33       1.0  0.3758494878584365  0.3798840080462206  0.5290893051056141  1.0000
  C   C34       1.0  0.6241505121390537  0.8798840083838835  0.9709106947519062  1.0000
  C   C35       1.0  0.6241505110017408  0.6201159917847003  0.470910694648362  1.0000
  C   C36       1.0  0.3758494888115468  0.12011599186923988  0.0290893050021852  1.0000
  C   C37       1.0  0.06666739074858691  0.44780528903922484  0.5594103119354471  1.0000
  C   C38       1.0  0.9333326092489033  0.9478052889546853  0.9405896879220731  1.0000
  C   C39       1.0  0.9333326084837948  0.552194710791696  0.4405896882342801  1.0000
  C   C40       1.0  0.06666739170169722  0.05219471087623564  0.059410311832018246  1.0000
  C   C41       1.0  0.3133828604200782  0.40042052595231264  0.47425385246970586  1.0000
  C   C42       1.0  0.6866171397654139  0.900420525867773  0.025746147596592415  1.0000
  C   C43       1.0  0.6866171409027267  0.5995794743008107  0.5257461477001365  1.0000
  C   C44       1.0  0.3133828594669679  0.09957947438535025  0.9742538525731347  1.0000
  C   C45       1.0  0.44442814257765295  0.3773887410982842  0.4324693097951443  1.0000
  C   C46       1.0  0.5555718572356346  0.8773887410137446  0.06753068985540286  1.0000
  C   C47       1.0  0.5555718583729475  0.6226112587326367  0.567530689958947  1.0000
  C   C48       1.0  0.4444281416245426  0.12261125881717624  0.9324693098985731  1.0000
  C   C49       1.0  0.9096234563773339  0.2684624921889446  0.5024705577288617  1.0000
  C   C50       1.0  0.09037654399236081  0.7684624925266074  0.9975294425444096  1.0000
  C   C51       1.0  0.09037654285504793  0.7315375076419763  0.4975294424408654  1.0000
  C   C52       1.0  0.9096234573304441  0.2315375077265159  0.0024705576254328604  1.0000
  C   C53       1.0  0.9638497077152441  0.26191217368422187  0.4493811290577352  1.0000
  C   C54       1.0  0.036150292470247924  0.7619121735996823  0.050618871008562986  1.0000
  C   C55       1.0  0.03615029151713771  0.738087826146699  0.5506188711119919  1.0000
  C   C56       1.0  0.9638497084803525  0.23808782623123853  0.9493811287455283  1.0000
  C   C57       1.0  0.17877217045685223  0.22507199575466078  0.43014949342362435  1.0000
  C   C58       1.0  0.82122782972864  0.7250719956701211  0.06985050664267393  1.0000
  C   C59       1.0  0.8212278287755296  0.7749280044984626  0.5698505067461028  1.0000
  C   C60       1.0  0.17877217159416495  0.27492800416079965  0.9301494935271684  1.0000
  C   C61       1.0  0.03899388431190286  0.23767191843021088  0.554133704382802  1.0000
  C   C62       1.0  0.9610061156855876  0.7376719183456713  0.9458662954747185  1.0000
  C   C63       1.0  0.9610061166386976  0.7623280818229125  0.44586629537128947  1.0000
  C   C64       1.0  0.03899388317459003  0.26232808148524955  0.054133704279257774  1.0000
  C   C65       1.0  0.8326398745055543  0.19668060200682227  0.5736815194889024  1.0000
  C   C66       1.0  0.16736012586414045  0.6966806023444851  0.9263184807843688  1.0000
  C   C67       1.0  0.16736012681725063  0.8033193978240986  0.42631848068093986  1.0000
  C   C68       1.0  0.8326398733682415  0.3033193979086382  0.07368151938535838  1.0000
  C   C69       1.0  0.7686374591432625  0.2173905243563528  0.3124002240201501  1.0000
  C   C70       1.0  0.2313625410422296  0.7173905242718133  0.18759977604614816  1.0000
  C   C71       1.0  0.23136254217954233  0.7826094758967704  0.6875997761496921  1.0000
  C   C72       1.0  0.7686374581901523  0.28260947555910765  0.812400224123579  1.0000
  C   C73       1.0  0.8242464578483595  0.18287825360329177  0.26924138744672044  1.0000
  C   C74       1.0  0.17575354196492815  0.6828782535187522  0.23075861220382676  1.0000
  C   C75       1.0  0.17575354101181784  0.8171217462276291  0.7307586123072557  1.0000
  C   C76       1.0  0.8242464589856724  0.3171217463121687  0.7692413875502646  1.0000
  C   C77       1.0  0.5960648775265045  0.916347100869052  0.36077649620972796  1.0000
  C   C78       1.0  0.40393512265898757  0.41634710095359156  0.13922350385657029  1.0000
  C   C79       1.0  0.40393512342409577  0.08365289896186885  0.6392235035443633  1.0000
  C   C80       1.0  0.5960648765733945  0.5836528988773293  0.860776496313157  1.0000
  C   C81       1.0  0.8064843704437809  0.010152295781725038  0.37528786776289247  1.0000
  C   C82       1.0  0.19351562974171135  0.5101522956971855  0.12471213230340585  1.0000
  C   C83       1.0  0.19351562878860107  0.9898477040491959  0.6247121324068348  1.0000
  C   C84       1.0  0.8064843715810935  0.48984770413373535  0.8752878678664365  1.0000
  C   C85       1.0  0.6405464275576153  0.05963763790901736  0.3748593015065126  1.0000
  C   C86       1.0  0.3594535726278768  0.5596376382466802  0.12514069855978566  1.0000
  C   C87       1.0  0.35945357376518966  0.9403623619219035  0.6251406986633298  1.0000
  C   C88       1.0  0.6405464266045051  0.4403623620064431  0.8748593016099416  1.0000
  C   C89       1.0  0.3885464723554989  0.07069451039071223  0.333633660808258  1.0000
  C   C90       1.0  0.6114535274577888  0.5706945103061727  0.1663663388422892  1.0000
  C   C91       1.0  0.6114535265046785  0.9293054898624111  0.6663663389457181  1.0000
  C   C92       1.0  0.3885464734928116  0.4293054899469506  0.833633660911802  1.0000
  C   C93       1.0  0.33312758854914604  0.051169107320258214  0.28071033456992445  1.0000
  C   C94       1.0  0.666872411636346  0.5511691072357187  0.2192896654963738  1.0000
  C   C95       1.0  0.6668724103110314  0.9488308925106627  0.7192896651840517  1.0000
  C   C96       1.0  0.33312758968645884  0.44883089259520226  0.7807103346734685  1.0000
  C   C97       1.0  0.5114285665752073  0.01483047081912693  0.25342598342627803  1.0000
  C   C98       1.0  0.48857143361028477  0.5148304707345874  0.24657401664002027  1.0000
  C   C99       1.0  0.48857143265717456  0.985169529011794  0.7465740167434491  1.0000
  C   C100      1.0  0.5114285673403156  0.4851695290963335  0.753425983114071  1.0000
  C   C101      1.0  0.6940389280235967  0.9730779359351319  0.2811366682232757  1.0000
  C   C102      1.0  0.30596107216189555  0.4730779360196715  0.21886333184302256  1.0000
  C   C103      1.0  0.3059610712087853  0.026922064317991327  0.7188633319464515  1.0000
  C   C104      1.0  0.6940389291609093  0.5269220642334518  0.7811366683268197  1.0000
  C   C105      1.0  0.8746873417007117  0.9422793428636925  0.25332673808686934  1.0000
  C   C106      1.0  0.12531265848478035  0.442279342948232  0.2466732619794289  1.0000
  C   C107      1.0  0.12531265924988855  0.05772065738943084  0.7466732616672219  1.0000
  C   C108      1.0  0.8746873407476017  0.5577206573048913  0.7533267381902984  1.0000
  C   C109      1.0  0.8689428732798425  0.9509682529811948  0.19671587096032528  1.0000
  C   C110      1.0  0.1310571269056496  0.4509682530657344  0.30328412910597297  1.0000
  C   C111      1.0  0.13105712804296243  0.04903174684972603  0.8032841292095171  1.0000
  C   C112      1.0  0.8689428723267321  0.5490317467651865  0.6967158710637542  1.0000
  C   C113      1.0  0.6815338278918343  0.9906240477423071  0.1681325258151712  1.0000
  C   C114      1.0  0.31846617229365787  0.4906240474046442  0.33186747425112706  1.0000
  C   C115      1.0  0.3184661734309705  0.009375952510816207  0.831867474354671  1.0000
  C   C116      1.0  0.6815338265665195  0.5093759524262766  0.6681325255028491  1.0000
  C   C117      1.0  0.5069718847308993  0.022267722607021218  0.1960910619686558  1.0000
  C   C118      1.0  0.49302811545459285  0.5222677225224817  0.30390893809764247  1.0000
  C   C119      1.0  0.4930281165919056  0.9777322772238997  0.8039089382011865  1.0000
  C   C120      1.0  0.5069718837777889  0.4777322773084392  0.6960910620720847  1.0000
  C   C121      1.0  0.7279152088795734  0.09971149074806633  0.4169886901289999  1.0000
  C   C122      1.0  0.2720847913059187  0.5997114906635268  0.08301130993729833  1.0000
  C   C123      1.0  0.2720847920710271  0.900288509505057  0.5830113096250914  1.0000
  C   C124      1.0  0.7279152079264632  0.4002885095895965  0.9169886902324289  1.0000
  C   C125      1.0  0.9756722125324249  0.09267180544380645  0.45564993097526846  1.0000
  C   C126      1.0  0.024327787653067267  0.5926718053592669  0.0443500690910298  1.0000
  C   C127      1.0  0.02432778669995704  0.9073281948093168  0.5443500691944587  1.0000
  C   C128      1.0  0.9756722132975333  0.4073281948938564  0.9556499306630616  1.0000
  C   C129      1.0  0.14663742417915598  0.045313032293271334  0.45290323394998655  1.0000
  C   C130      1.0  0.8533625760063361  0.5453130326309342  0.047096766116311695  1.0000
  C   C131      1.0  0.8533625767714444  0.9546869675376495  0.5470967658041047  1.0000
  C   C132      1.0  0.14663742322604578  0.4546869676221891  0.9529032340534155  1.0000
  C   C133      1.0  0.06129297617105164  0.00412485892659244  0.41276180693231995  1.0000
  C   C134      1.0  0.9387070240144404  0.5041248588420529  0.0872381931339783  1.0000
  C   C135      1.0  0.9387070251517533  0.9958751409043284  0.5872381932375225  1.0000
  C   C136      1.0  0.06129297521794132  0.495875140988868  0.9127618070357488  1.0000
  N   N1        1.0  0.7948148899641831  0.3013845801813441  0.4139656710570035  1.0000
  N   N2        1.0  0.20518511022130892  0.8013845800968046  0.08603432900929478  1.0000
  N   N3        1.0  0.20518510926819875  0.6986154196495767  0.5860343291127238  1.0000
  N   N4        1.0  0.794814891101496  0.1986154197341163  0.9139656711605475  1.0000
  N   N5        1.0  0.7024146224631718  0.9641851527145758  0.3393700155243295  1.0000
  N   N6        1.0  0.29758537772232047  0.4641851527991155  0.16062998454196878  1.0000
  N   N7        1.0  0.2975853767692103  0.03581484711634497  0.6606299846453978  1.0000
  N   N8        1.0  0.7024146215100615  0.5358148470318054  0.8393700156277585  1.0000
  N   N9        1.0  0.6449080284981931  0.9117332652579556  0.41676927145516474  1.0000
  N   N10       1.0  0.355091971687299  0.4117332653424951  0.08323072861113348  1.0000
  N   N11       1.0  0.35509197282461186  0.08826673457296534  0.5832307287146776  1.0000
  N   N12       1.0  0.6449080271728783  0.5882667344884258  0.9167692711428426  1.0000
  O   O1        1.0  0.7045954477724844  0.3598399377507016  0.3386478100883352  1.0000
  O   O2        1.0  0.2954045524130078  0.8598399376661621  0.16135218997796305  1.0000
  O   O3        1.0  0.2954045514598976  0.6401600625024217  0.661352190081392  1.0000
  O   O4        1.0  0.7045954485375927  0.1401600625869613  0.8386478097761284  1.0000
  O   O5        1.0  0.2545996797580779  0.40093184432210965  0.5717503740665741  1.0000
  O   O6        1.0  0.7454003206116167  0.9009318442375701  0.9282496262066972  1.0000
  O   O7        1.0  0.745400319474304  0.5990681559310136  0.428249626103153  1.0000
  O   O8        1.0  0.25459968071118816  0.09906815601555317  0.07175037396314522  1.0000
  O   O9        1.0  0.6618679404574004  0.16896515517278243  0.5398048805201354  1.0000
  O   O10       1.0  0.3381320595400897  0.6689651555104453  0.9601951193373848  1.0000
  O   O11       1.0  0.338132058402777  0.8310348446581385  0.46019511923384077  1.0000
  O   O12       1.0  0.6618679414105108  0.33103484474267797  0.039804880416706497  1.0000
  O   O13       1.0  0.8538963736368316  0.19328455649185816  0.6282100270774046  1.0000
  O   O14       1.0  0.1461036267328632  0.6932845564073187  0.8717899731958667  1.0000
  O   O15       1.0  0.14610362559555032  0.8067154437612652  0.37178997309232253  1.0000
  O   O16       1.0  0.8538963745899417  0.3067154438458047  0.12821002697397565  1.0000
  O   O17       1.0  0.45772476871383755  0.8794132759102167  0.33008534206467954  1.0000
  O   O18       1.0  0.5422752314716546  0.37941327599475627  0.16991465800161873  1.0000
  O   O19       1.0  0.5422752301463399  0.12058672392070414  0.6699146576892967  1.0000
  O   O20       1.0  0.45772476985115046  0.6205867238361645  0.8300853421682237  1.0000
  Cl  Cl1       1.0  0.07628090554290193  0.16113687512788125  0.18003604715150928  1.0000
  Cl  Cl2       1.0  0.9237190946425902  0.6611368750433416  0.31996395291478896  1.0000
  Cl  Cl3       1.0  0.9237190954076986  0.8388631251252421  0.819963952602582  1.0000
  Cl  Cl4       1.0  0.07628090458979166  0.33886312478757913  0.6800360472549383  1.0000
