data_image0
_chemical_formula_structural       H44C52N12O12
_chemical_formula_sum              "H44 C52 N12 O12"
_cell_length_a       13.454773584106162
_cell_length_b       5.368107723311965
_cell_length_c       16.493883251044572
_cell_angle_alpha    90.0
_cell_angle_beta     103.90723783702691
_cell_angle_gamma    90.0

_space_group_name_H-M_alt    "P 1"
_space_group_IT_number       1

loop_
  _space_group_symop_operation_xyz
  'x, y, z'

loop_
  _atom_site_type_symbol
  _atom_site_label
  _atom_site_symmetry_multiplicity
  _atom_site_fract_x
  _atom_site_fract_y
  _atom_site_fract_z
  _atom_site_occupancy
  H   H1        1.0  0.7142929926693226  0.42520365045724906  0.4606188474896313  1.0000
  H   H2        1.0  0.785707007332228  0.9252036501487638  0.039381151987157095  1.0000
  H   H3        1.0  0.2857070070165891  0.5747963489257802  0.5393811522052521  1.0000
  H   H4        1.0  0.21429299311930164  0.07479634923426556  0.9606188478504102  1.0000
  H   H5        1.0  0.5971671576841634  0.554325694150581  0.6499116052248853  1.0000
  H   H6        1.0  0.9028328426103219  0.054325694459066334  0.8500883944601237  1.0000
  H   H7        1.0  0.4028328427673662  0.44567430523244833  0.350088394612682  1.0000
  H   H8        1.0  0.09716715707558958  0.945674304923963  0.1499116052347597  1.0000
  H   H9        1.0  0.7538689942264286  0.03518421196724255  0.7025104496959949  1.0000
  H   H10       1.0  0.7461310053024387  0.535184213521611  0.7974895498463301  1.0000
  H   H11       1.0  0.24613100545948297  0.9648157874157868  0.2974895499988886  1.0000
  H   H12       1.0  0.25386899438347277  0.4648157877242721  0.2025104498485531  1.0000
  H   H13       1.0  0.8772501867035836  0.6952397422638513  0.6964725215880301  1.0000
  H   H14       1.0  0.6227498136002808  0.19523974257233662  0.8035274787050576  1.0000
  H   H15       1.0  0.12274981374794607  0.30476025711917804  0.3035274782495372  1.0000
  H   H16       1.0  0.37725018609500965  0.8047602568106927  0.1964725215979045  1.0000
  H   H17       1.0  0.9457428741135695  0.6480036577682228  0.569952701393258  1.0000
  H   H18       1.0  0.5542571254246768  0.1480036580767081  0.9300472987571458  1.0000
  H   H19       1.0  0.054257125581720994  0.3519963416148066  0.4300472989097041  1.0000
  H   H20       1.0  0.44574287426123477  0.851996343169175  0.06995270093773756  1.0000
  H   H21       1.0  0.8934260763420697  0.9444682356098387  0.4504650788855739  1.0000
  H   H22       1.0  0.6065739236688598  0.44446823591832413  0.04953492119929319  1.0000
  H   H23       1.0  0.10657392335322083  0.05553176377319059  0.5495349214173881  1.0000
  H   H24       1.0  0.39342607678266983  0.5555317634647052  0.9504650786382741  1.0000
  H   H25       1.0  0.576506132316791  0.7962304540645306  0.46830133664933726  1.0000
  H   H26       1.0  0.9234938676941383  0.29623045437301604  0.031698663435529816  1.0000
  H   H27       1.0  0.4234938673691205  0.20376954531849864  0.531698663045546  1.0000
  H   H28       1.0  0.0765061327667703  0.7037695450100133  0.9683013370101162  1.0000
  H   H29       1.0  0.6847235697149037  0.5953380753000727  0.33924465277557464  1.0000
  H   H30       1.0  0.8152764302960259  0.09533807560855795  0.16075534730929245  1.0000
  H   H31       1.0  0.3152764299710079  0.4046619240829567  0.6607553469193087  1.0000
  H   H32       1.0  0.1847235701648828  0.9046619256373252  0.8392446531363535  1.0000
  H   H33       1.0  0.7008644099736928  0.707556762228422  0.1970847165198326  1.0000
  H   H34       1.0  0.7991355900372364  0.20755676253690736  0.30291528356503455  1.0000
  H   H35       1.0  0.2991355897122187  0.2924432390174611  0.8029152831750508  1.0000
  H   H36       1.0  0.20086440965805394  0.7924432387089758  0.6970847167379275  1.0000
  H   H37       1.0  0.6121096558211113  0.06742241002881726  0.12201656181450495  1.0000
  H   H38       1.0  0.8878903441898182  0.5674224115831857  0.3779834382703621  1.0000
  H   H39       1.0  0.38789034386480026  0.9325775893542122  0.8779834378803784  1.0000
  H   H40       1.0  0.11210965627109044  0.43257758966269744  0.6220165621752839  1.0000
  H   H41       1.0  0.49797903736692567  0.33939171751120273  0.18518981792269082  1.0000
  H   H42       1.0  0.002020962476030057  0.8393917172027173  0.31481018192475085  1.0000
  H   H43       1.0  0.5020209623283648  0.6606082818718266  0.8148101823802713  1.0000
  H   H44       1.0  0.9979790372098816  0.16060828218031195  0.6851898177701325  1.0000
  C   C1        1.0  0.7932286438097017  0.1525258810370593  0.5088679807416325  1.0000
  C   C2        1.0  0.7067713557285444  0.652525880728574  0.991132019408771  1.0000
  C   C3        1.0  0.20677135588558884  0.8474741183459701  0.49113201956132946  1.0000
  C   C4        1.0  0.29322864395736686  0.3474741186544554  0.008867980286112197  1.0000
  C   C5        1.0  0.7532249634199507  0.17924670844838062  0.5806606358805456  1.0000
  C   C6        1.0  0.7467750361182954  0.6792467100027492  0.9193393642698581  1.0000
  C   C7        1.0  0.2467750362659608  0.8207532909346488  0.41933936381433773  1.0000
  C   C8        1.0  0.2532249635769949  0.32075329124313406  0.08066063603310394  1.0000
  C   C9        1.0  0.7845386863930707  0.012602237787855313  0.6476294672418125  1.0000
  C   C10       1.0  0.7154613139014148  0.51260223747937  0.8523705324431965  1.0000
  C   C11       1.0  0.21546131405845897  0.987397761595174  0.35237053259575474  1.0000
  C   C12       1.0  0.2845386857844968  0.48739776190365935  0.1476294672516869  1.0000
  C   C13       1.0  0.8534369996073733  0.8228415165399806  0.6441179771340207  1.0000
  C   C14       1.0  0.6465630006871119  0.32284151684846596  0.8558820225509882  1.0000
  C   C15       1.0  0.14656300084415627  0.17715848284304872  0.3558820227035465  1.0000
  C   C16       1.0  0.3534369997644176  0.6771584825345633  0.14411797728657902  1.0000
  C   C17       1.0  0.8920318507913501  0.7977317819840508  0.5727035866054991  1.0000
  C   C18       1.0  0.6079681495125142  0.29773178229253616  0.9272964136875885  1.0000
  C   C19       1.0  0.10796814966955845  0.20226821926183233  0.4272964138401469  1.0000
  C   C20       1.0  0.3920318501733973  0.702268218953347  0.0727035860072948  1.0000
  C   C21       1.0  0.8631253392944755  0.9610962923852957  0.5058352821612845  1.0000
  C   C22       1.0  0.6368746610093889  0.46109629269378094  0.9941647181318032  1.0000
  C   C23       1.0  0.13687466040081497  0.0389037069977337  0.49416471814167756  1.0000
  C   C24       1.0  0.36312533944214076  0.5389037066892484  0.0058352817057640794  1.0000
  C   C25       1.0  0.6798538696439588  0.38054880514574246  0.5825682254497068  1.0000
  C   C26       1.0  0.8201461306599055  0.8805488048372571  0.9174317748433809  1.0000
  C   C27       1.0  0.3201461308075709  0.6194511942372869  0.4174317743878605  1.0000
  C   C28       1.0  0.1798538690353849  0.11945119454577224  0.08256822545958115  1.0000
  C   C29       1.0  0.5293787680898348  0.11735671534015317  0.29890996053192986  1.0000
  C   C30       1.0  0.9706212319210947  0.6173567150316679  0.20109003955293722  1.0000
  C   C31       1.0  0.4706212323710739  0.8826432840428763  0.7010900399137162  1.0000
  C   C32       1.0  0.029378767764816793  0.38264328435136147  0.7989099601419462  1.0000
  C   C33       1.0  0.5820572733718742  0.9100017011182678  0.34234448602736867  1.0000
  C   C34       1.0  0.9179427266390552  0.4100017014267532  0.15765551405749845  1.0000
  C   C35       1.0  0.4179427270890344  0.0899982982647615  0.6576555144182774  1.0000
  C   C36       1.0  0.08205727304685632  0.5899982979562761  0.842344485637385  1.0000
  C   C37       1.0  0.6446316373397541  0.7561451929089965  0.3070085289044544  1.0000
  C   C38       1.0  0.8553683626711752  0.25614519321748186  0.19299147118041268  1.0000
  C   C39       1.0  0.35536836234615743  0.2438548064740328  0.6929914707904289  1.0000
  C   C40       1.0  0.14463163778973329  0.7438548061655474  0.8070085292652334  1.0000
  C   C41       1.0  0.65288937771456  0.8199523960529514  0.22740823653840264  1.0000
  C   C42       1.0  0.8471106222963692  0.3199523963614368  0.27259176354646447  1.0000
  C   C43       1.0  0.3471106219713515  0.18004760333007785  0.7725917631564807  1.0000
  C   C44       1.0  0.15288937815516024  0.6800476030215925  0.7274082362911028  1.0000
  C   C45       1.0  0.6012380738882884  0.02828928885695067  0.18413277217518145  1.0000
  C   C46       1.0  0.8987619261226408  0.5282892904113192  0.31586722790968563  1.0000
  C   C47       1.0  0.3987619265632411  0.9717107105260786  0.8158672276623858  1.0000
  C   C48       1.0  0.10123807357264958  0.471710710834564  0.6841327723932765  1.0000
  C   C49       1.0  0.5385681423580764  0.17996603268683267  0.2183918074607165  1.0000
  C   C50       1.0  0.9614318576528531  0.6799660323783474  0.2816081926241506  1.0000
  C   C51       1.0  0.46143185810283227  0.8200339666961968  0.7816081929849296  1.0000
  C   C52       1.0  0.03856814203305843  0.320033967004682  0.7183918070707328  1.0000
  N   N1        1.0  0.47543401073025665  0.226467288411632  0.3507086277266108  1.0000
  N   N2        1.0  0.024565989112699083  0.7264672881031466  0.1492913721208308  1.0000
  N   N3        1.0  0.5245659897306519  0.7735327109713973  0.6492913727190351  1.0000
  N   N4        1.0  0.9754340105732124  0.2735327112798827  0.8507086275740524  1.0000
  N   N5        1.0  0.49204663415680316  0.10195835072816263  0.42095949597691845  1.0000
  N   N6        1.0  0.007953365695531508  0.6019583504196773  0.07904050447860199  1.0000
  N   N7        1.0  0.5079533655384872  0.8980416505177204  0.5790405043260436  1.0000
  N   N8        1.0  0.9920466339997589  0.39804164896335203  0.9209594958243602  1.0000
  N   N9        1.0  0.5555010888898825  0.9131796254221928  0.4172382773143408  1.0000
  N   N10       1.0  0.944498911111668  0.41317962573067807  0.08276172216244754  1.0000
  N   N11       1.0  0.44449891156164717  0.08682037396083661  0.5827617225232264  1.0000
  N   N12       1.0  0.05550108857424356  0.5868203736523513  0.9172382775324358  1.0000
  O   O1        1.0  0.7651234790808055  0.3081580689627799  0.4431301427383689  1.0000
  O   O2        1.0  0.7348765209207448  0.8081580686542946  0.05686985673841945  1.0000
  O   O3        1.0  0.23487652137072404  0.6918419304202494  0.5568698570991982  1.0000
  O   O4        1.0  0.2651234787651667  0.19184193072873473  0.9431301429564639  1.0000
  O   O5        1.0  0.6498923193349301  0.5220946867047669  0.5203262926606114  1.0000
  O   O6        1.0  0.8501076809595554  0.022094687013252255  0.9796737070243977  1.0000
  O   O7        1.0  0.3501076803509815  0.4779053126782624  0.4796737070342719  1.0000
  O   O8        1.0  0.1498923194919743  0.9779053142326309  0.02032629281316971  1.0000
  O   O9        1.0  0.6484009046157647  0.40237840433413224  0.6516366622992508  1.0000
  O   O10       1.0  0.8515990956880994  0.902378404025647  0.8483633379938369  1.0000
  O   O11       1.0  0.35159909584514376  0.597621595048897  0.34836333814639525  1.0000
  O   O12       1.0  0.1484009047728091  0.09762159535738242  0.15163666245180912  1.0000
