data_image0
_chemical_formula_structural       H66C54N2O14F12P2
_chemical_formula_sum              "H66 C54 N2 O14 F12 P2"
_cell_length_a       10.769660895157685
_cell_length_b       11.551943874697391
_cell_length_c       13.359315975838202
_cell_angle_alpha    69.80888083319796
_cell_angle_beta     66.6775564756769
_cell_angle_gamma    75.68183550755644

_space_group_name_H-M_alt    "P 1"
_space_group_IT_number       1

loop_
  _space_group_symop_operation_xyz
  'x, y, z'

loop_
  _atom_site_type_symbol
  _atom_site_label
  _atom_site_symmetry_multiplicity
  _atom_site_fract_x
  _atom_site_fract_y
  _atom_site_fract_z
  _atom_site_occupancy
  H   H1        1.0  0.5549958090021428  0.5712410716727983  0.4215593383830118  1.0000
  H   H2        1.0  0.4450041906752174  0.42875892870624255  0.5784406617223945  1.0000
  H   H3        1.0  0.4597590540422043  0.4983861644180544  0.22634507735259743  1.0000
  H   H4        1.0  0.5402409458728116  0.5016138350694226  0.7736549227468358  1.0000
  H   H5        1.0  0.32359335871176687  0.6057288489682359  0.27927934692676715  1.0000
  H   H6        1.0  0.6764066412032487  0.3942711505192411  0.7207206531726662  1.0000
  H   H7        1.0  0.2091959208857808  0.4482340086707682  0.2872044379015992  1.0000
  H   H8        1.0  0.7908040791402567  0.5517659919729822  0.7127955613552661  1.0000
  H   H9        1.0  0.20690411895788235  0.4117160304106766  0.42828802383533804  1.0000
  H   H10       1.0  0.7930958809571335  0.5882839690768004  0.5717119762640953  1.0000
  H   H11       1.0  0.40803597500752625  0.29021608174517377  0.24342340559087772  1.0000
  H   H12       1.0  0.5919640246698339  0.709783918633867  0.7565765945145286  1.0000
  H   H13       1.0  0.42023492970952664  0.25572230371628957  0.3797689395426026  1.0000
  H   H14       1.0  0.5797650702054892  0.7442776957711873  0.6202310605568307  1.0000
  H   H15       1.0  0.28785216243583406  0.1342670392043835  0.5320786061903873  1.0000
  H   H16       1.0  0.7121478375902034  0.8657329614393668  0.4679213930664781  1.0000
  H   H17       1.0  0.11506165570511402  0.9911732555219656  0.6222955368550154  1.0000
  H   H18       1.0  0.8849383442099019  0.008826743965511512  0.3777044632444179  1.0000
  H   H19       1.0  0.02982979869338384  0.11684955362655969  0.306943433455229  1.0000
  H   H20       1.0  0.9701702012216319  0.8831504458609173  0.6930565666442043  1.0000
  H   H21       1.0  0.2102713925163328  0.2541407048148817  0.22786971093877742  1.0000
  H   H22       1.0  0.7897286071610272  0.745859295564159  0.7721302891666291  1.0000
  H   H23       1.0  0.7164616388260064  0.8536204617287346  0.08949785001513962  1.0000
  H   H24       1.0  0.2835383608513537  0.14637953865030606  0.9105021500902668  1.0000
  H   H25       1.0  0.5824867282708891  0.961613232971298  0.050245782051336785  1.0000
  H   H26       1.0  0.41751327199280386  0.038386766780888454  0.9497542171995554  1.0000
  H   H27       1.0  0.798164441613268  0.04987072329865217  0.965790585715768  1.0000
  H   H28       1.0  0.20183555806409204  0.9501292770803886  0.034209414389638336  1.0000
  H   H29       1.0  0.8826087192729162  0.9314744091609644  0.8944349504924651  1.0000
  H   H30       1.0  0.11739128040444387  0.06852559121807655  0.1055650496129412  1.0000
  H   H31       1.0  0.9399597973209479  0.15838799725924713  0.8222868548733661  1.0000
  H   H32       1.0  0.06004020363326755  0.8416120033821713  0.1777131443854754  1.0000
  H   H33       1.0  0.05148233656363327  0.3235076267645434  0.655564495816347  1.0000
  H   H34       1.0  0.9485176633513825  0.6764923727229336  0.3444355042830863  1.0000
  H   H35       1.0  0.983923568178767  0.3962577523699514  0.48394304338094846  1.0000
  H   H36       1.0  0.01607643173624888  0.6037422471175254  0.5160569567184848  1.0000
  H   H37       1.0  0.6701488673955363  0.27666460369071627  0.37560251774895775  1.0000
  H   H38       1.0  0.32985113321000226  0.7233353966859927  0.6243974823584246  1.0000
  H   H39       1.0  0.5422059927765984  0.12757431771094  0.5485598697933882  1.0000
  H   H40       1.0  0.4577940069007618  0.8724256826681007  0.45144013031201813  1.0000
  H   H41       1.0  0.597840757231883  0.06376330716294171  0.7243174287628893  1.0000
  H   H42       1.0  0.40215924244547724  0.9362366932160989  0.27568257134251717  1.0000
  H   H43       1.0  0.7358170399516083  0.4711606550608034  0.27478275063385954  1.0000
  H   H44       1.0  0.26418295972575195  0.5288393453182375  0.7252172494715468  1.0000
  H   H45       1.0  0.8616373722707955  0.34988336140053544  0.22634333451324018  1.0000
  H   H46       1.0  0.13836262740656463  0.6501166389785052  0.7736566655921663  1.0000
  H   H47       1.0  0.8973055959312671  0.5766252611097793  0.10574334299317305  1.0000
  H   H48       1.0  0.10269440398374859  0.42337473837769785  0.8942566571062602  1.0000
  H   H49       1.0  0.9303292020354043  0.5948127487416179  0.22014992029265373  1.0000
  H   H50       1.0  0.0696707985701341  0.405187251635091  0.7798500798147286  1.0000
  H   H51       1.0  0.18639662064958662  0.6004728078984535  0.1142730119267453  1.0000
  H   H52       1.0  0.8136033792654292  0.39952719158902344  0.8857269881726881  1.0000
  H   H53       1.0  0.11863105630742442  0.6288598887911571  0.004824115868783458  1.0000
  H   H54       1.0  0.8813689436075913  0.3711401106963198  0.9951758842306498  1.0000
  H   H55       1.0  0.25983573715477665  0.44054060020837027  0.9525433024717561  1.0000
  H   H56       1.0  0.7401642634507618  0.5594594001683386  0.04745669763562627  1.0000
  H   H57       1.0  0.3571425380196304  0.5572996341942548  0.9317237319873184  1.0000
  H   H58       1.0  0.6428574622440626  0.4427003655579315  0.0682762672635739  1.0000
  H   H59       1.0  0.515873191351222  0.26441605668004503  0.0764200114536175  1.0000
  H   H60       1.0  0.48412680832613814  0.7355839436989957  0.9235799886517888  1.0000
  H   H61       1.0  0.5528096143504889  0.38885152265570566  0.9486733020553296  1.0000
  H   H62       1.0  0.4471903853268713  0.6111484777233351  0.05132669805007676  1.0000
  H   H63       1.0  0.5848292849328313  0.6863056045388707  0.12272448861504662  1.0000
  H   H64       1.0  0.41517071509320613  0.3136943961048797  0.8772755106418189  1.0000
  H   H65       1.0  0.45931945413584147  0.8051696848822898  0.08307641425113835  1.0000
  H   H66       1.0  0.540680546469697  0.194830315494419  0.9169235858562441  1.0000
  C   C1        1.0  0.4285388296764735  0.5017590720757646  0.392239202665833  1.0000
  C   C2        1.0  0.5714611700008867  0.4982409283032761  0.6077607974395733  1.0000
  C   C3        1.0  0.37288499515759255  0.5097790374636212  0.3026380064102047  1.0000
  C   C4        1.0  0.627115005447946  0.4902209629130877  0.6973619936971777  1.0000
  C   C5        1.0  0.273663674878241  0.41719794935383736  0.34029869477024605  1.0000
  C   C6        1.0  0.7263363250367749  0.5828020501336395  0.6597013053291872  1.0000
  C   C7        1.0  0.35000694321586306  0.2889350967775094  0.3318357398386251  1.0000
  C   C8        1.0  0.649993056461497  0.7110649036015315  0.6681642602667813  1.0000
  C   C9        1.0  0.22775997554769561  0.12627795385978163  0.4864096065479381  1.0000
  C   C10       1.0  0.7722400247159974  0.8737220458924049  0.5135903927029543  1.0000
  C   C11       1.0  0.12972797253480947  0.04708421032869486  0.5354966006770453  1.0000
  C   C12       1.0  0.8702720280707288  0.9529157900480141  0.4645033994303372  1.0000
  C   C13       1.0  0.05332790510743529  0.0413234181647195  0.47385345854007815  1.0000
  C   C14       1.0  0.946672094569925  0.9586765822143213  0.5261465415653281  1.0000
  C   C15       1.0  0.08373448312045903  0.11632277330858883  0.36077976501297043  1.0000
  C   C16       1.0  0.9162655167945567  0.8836772261788881  0.639220235086463  1.0000
  C   C17       1.0  0.18342559932199237  0.19357829602023616  0.314569595278551  1.0000
  C   C18       1.0  0.8165744005930233  0.8064217034672407  0.6854304048208824  1.0000
  C   C19       1.0  0.6794873781794405  0.9039618799796575  0.0174464215588276  1.0000
  C   C20       1.0  0.3205126214979197  0.09603812039938325  0.9825535785465789  1.0000
  C   C21       1.0  0.7837634276550185  0.9858481401450565  0.9279441774884306  1.0000
  C   C22       1.0  0.2162365722599975  0.014151859342420296  0.07205582261100268  1.0000
  C   C23       1.0  0.8006687931784867  0.14190893441398822  0.7494115615649405  1.0000
  C   C24       1.0  0.19933120649887343  0.8580910659650525  0.2505884385404658  1.0000
  C   C25       1.0  0.9054424555636423  0.1915427353361377  0.7497480128204184  1.0000
  C   C26       1.0  0.09455754411371793  0.8084572650429032  0.25025198728498793  1.0000
  C   C27       1.0  0.96986460129552  0.2847690804863663  0.653833618451905  1.0000
  C   C28       1.0  0.030135398619495723  0.7152309190011107  0.34616638164752833  1.0000
  C   C29       1.0  0.9331421563039393  0.3255445931361124  0.5581532523652702  1.0000
  C   C30       1.0  0.06685784361107648  0.6744554063513645  0.44184674773416305  1.0000
  C   C31       1.0  0.829218920119007  0.27340249496600294  0.5548681981944573  1.0000
  C   C32       1.0  0.1707810797960088  0.726597504521474  0.445131801904976  1.0000
  C   C33       1.0  0.7948178154873645  0.30684975858383834  0.45441790669441173  1.0000
  C   C34       1.0  0.2051821844276512  0.6931502409036386  0.5455820934050216  1.0000
  C   C35       1.0  0.6933188148746621  0.2544605021216598  0.45276495491101726  1.0000
  C   C36       1.0  0.3066811853890308  0.7455394976305266  0.5472350443398751  1.0000
  C   C37       1.0  0.6217229495985888  0.16798964681041179  0.5514007389816847  1.0000
  C   C38       1.0  0.3782770500787714  0.832010353568629  0.44859926112372167  1.0000
  C   C39       1.0  0.652414545482969  0.13183532766840428  0.6495830004299925  1.0000
  C   C40       1.0  0.34758545419439124  0.8681646727106366  0.35041699967541384  1.0000
  C   C41       1.0  0.758181856386689  0.1823163246004305  0.6521785385299262  1.0000
  C   C42       1.0  0.24181814329067136  0.8176836757786105  0.34782146157548  1.0000
  C   C43       1.0  0.8429062487011273  0.4295913879667375  0.25998883827866426  1.0000
  C   C44       1.0  0.15709375156256564  0.5704086117854491  0.7400111609722281  1.0000
  C   C45       1.0  0.934486457166572  0.5261972562375349  0.17771062587046604  1.0000
  C   C46       1.0  0.0655135425107882  0.4738027441415057  0.8222893742349404  1.0000
  C   C47       1.0  0.16301697843543764  0.5550224658296755  0.06432162168242042  1.0000
  C   C48       1.0  0.836983021479578  0.44497753365780157  0.9356783784170128  1.0000
  C   C49       1.0  0.28986582427211904  0.4885342507885391  0.9962746858687007  1.0000
  C   C50       1.0  0.7101341756428967  0.5114657486989377  0.003725314230732754  1.0000
  C   C51       1.0  0.4749264593104496  0.328225260749216  0.011049156930188785  1.0000
  C   C52       1.0  0.5250735406045661  0.6717747387382611  0.9889508431692445  1.0000
  C   C53       1.0  0.5545694887259094  0.7461410652364483  0.04905800826618794  1.0000
  C   C54       1.0  0.4454305111891066  0.25385893425102857  0.9509419918332455  1.0000
  N   N1        1.0  0.2532342622724359  0.19774363187026756  0.3782145865619177  1.0000
  N   N2        1.0  0.7467657385707581  0.8022563676148775  0.6217854135394917  1.0000
  O   O1        1.0  0.5225145244483204  0.57522015708876  0.3565010219173406  1.0000
  O   O2        1.0  0.4774854752290399  0.4247798432902808  0.6434989781880658  1.0000
  O   O3        1.0  0.3881460841645691  0.4316236869680153  0.49041719910395737  1.0000
  O   O4        1.0  0.6118539164409692  0.5683763134086935  0.509582801003425  1.0000
  O   O5        1.0  0.7310537639999274  0.052645635743877504  0.8368125946415451  1.0000
  O   O6        1.0  0.26894623567743264  0.9473543646351632  0.16318740546386135  1.0000
  O   O7        1.0  0.871248756256697  0.38985830927240006  0.36422531422541154  1.0000
  O   O8        1.0  0.12875124342066324  0.6101416911066405  0.6357746858799949  1.0000
  O   O9        1.0  0.06983096139936003  0.46691731223945454  0.1376274002984628  1.0000
  O   O10       1.0  0.9301690397925113  0.5330826875103999  0.8623725989544057  1.0000
  O   O11       1.0  0.35772569610346183  0.40084028750838113  0.06962831651252906  1.0000
  O   O12       1.0  0.6422743047397322  0.5991597119767639  0.9303716835888803  1.0000
  O   O13       1.0  0.6590315179874451  0.8201450521703644  0.9698889927751126  1.0000
  O   O14       1.0  0.34096848192757073  0.1798549473171126  0.030111007324320652  1.0000
  F   F1        1.0  0.7959137867752233  0.9643187512581763  0.20807639825399182  1.0000
  F   F2        1.0  0.20408621313979264  0.03568124822930064  0.7919236018454415  1.0000
  F   F3        1.0  0.8046580650094047  0.1544701843059987  0.06958167765752155  1.0000
  F   F4        1.0  0.1953419352542885  0.8455298154461878  0.9304183215933708  1.0000
  F   F5        1.0  0.6500350335929549  0.0628480521020862  0.3446981959591967  1.0000
  F   F6        1.0  0.3499649664330825  0.9371519485416642  0.6553018032976686  1.0000
  F   F7        1.0  0.5955756488531848  0.08543529179048108  0.18737998735433503  1.0000
  F   F8        1.0  0.4044243508241753  0.9145647085885596  0.8126200127510713  1.0000
  F   F9        1.0  0.8605002309950186  0.13133204360557324  0.2262781266276308  1.0000
  F   F10       1.0  0.13949976926867444  0.8686679561466133  0.7737218726232616  1.0000
  F   F11       1.0  0.6606280413579242  0.2517600702595741  0.20701504092534193  1.0000
  F   F12       1.0  0.33937195831943595  0.7482399301194668  0.7929849591800644  1.0000
  P   P1        1.0  0.7277384663833184  0.10726948957209992  0.20677817926226527  1.0000
  P   P2        1.0  0.2722615342222201  0.892730510804609  0.793221820845117  1.0000
