data_image0
_chemical_formula_structural       H148C116N20I12
_chemical_formula_sum              "H148 C116 N20 I12"
_cell_length_a       13.694127250703687
_cell_length_b       22.80647378122145
_cell_length_c       9.60239714849223
_cell_angle_alpha    90.0
_cell_angle_beta     90.0
_cell_angle_gamma    90.0

_space_group_name_H-M_alt    "P 1"
_space_group_IT_number       1

loop_
  _space_group_symop_operation_xyz
  'x, y, z'

loop_
  _atom_site_type_symbol
  _atom_site_label
  _atom_site_symmetry_multiplicity
  _atom_site_fract_x
  _atom_site_fract_y
  _atom_site_fract_z
  _atom_site_occupancy
  H   H1        1.0  0.0  0.5730261778022256  0.2880567911559796  1.0000
  H   H2        1.0  0.0  0.42697382214421725  0.7880567917551929  1.0000
  H   H3        1.0  0.500000000339427  0.07302617782900422  0.2880567911559796  1.0000
  H   H4        1.0  0.500000000339427  0.9269738221174386  0.7880567917551929  1.0000
  H   H5        1.0  0.8946174170661711  0.5517563210653452  0.47394101906257796  1.0000
  H   H6        1.0  0.10538258288244283  0.4482436788810977  0.9739410186203847  1.0000
  H   H7        1.0  0.8946174170661711  0.4482436788810977  0.9739410186203847  1.0000
  H   H8        1.0  0.10538258288244283  0.5517563210653452  0.47394101906257796  1.0000
  H   H9        1.0  0.3946174174569842  0.0517563210921238  0.47394101906257796  1.0000
  H   H10       1.0  0.6053825824916298  0.9482436792927911  0.9739410186203847  1.0000
  H   H11       1.0  0.3946174174569842  0.9482436792927911  0.9739410186203847  1.0000
  H   H12       1.0  0.6053825824916298  0.0517563210921238  0.47394101906257796  1.0000
  H   H13       1.0  0.6294856081140212  0.47186029121524486  0.34641083247866994  1.0000
  H   H14       1.0  0.3705143918345927  0.528139708731198  0.8464108320364768  1.0000
  H   H15       1.0  0.6294856081140212  0.528139708731198  0.8464108320364768  1.0000
  H   H16       1.0  0.3705143918345927  0.47186029121524486  0.34641083247866994  1.0000
  H   H17       1.0  0.12948560850483426  0.9718602911884663  0.34641083247866994  1.0000
  H   H18       1.0  0.8705143914437797  0.02813970875797656  0.8464108320364768  1.0000
  H   H19       1.0  0.12948560850483426  0.02813970875797656  0.8464108320364768  1.0000
  H   H20       1.0  0.8705143914437797  0.9718602911884663  0.34641083247866994  1.0000
  H   H21       1.0  0.6422729268524974  0.5815532334034351  0.2196867841829722  1.0000
  H   H22       1.0  0.3577270730961166  0.41844676654300783  0.719686783740779  1.0000
  H   H23       1.0  0.6422729268524974  0.41844676654300783  0.719686783740779  1.0000
  H   H24       1.0  0.3577270730961166  0.5815532334034351  0.2196867841829722  1.0000
  H   H25       1.0  0.14227292724331042  0.08155323343021365  0.2196867841829722  1.0000
  H   H26       1.0  0.8577270734355437  0.9184467665162293  0.719686783740779  1.0000
  H   H27       1.0  0.14227292724331042  0.9184467665162293  0.719686783740779  1.0000
  H   H28       1.0  0.8577270734355437  0.08155323343021365  0.2196867841829722  1.0000
  H   H29       1.0  0.8493239194489259  0.419362645963929  0.42285171058953364  1.0000
  H   H30       1.0  0.15067608049968803  0.5806373539825139  0.9228517101473405  1.0000
  H   H31       1.0  0.8493239194489259  0.5806373539825139  0.9228517101473405  1.0000
  H   H32       1.0  0.15067608049968803  0.419362645963929  0.42285171058953364  1.0000
  H   H33       1.0  0.34932391910949895  0.9193626459371506  0.42285171058953364  1.0000
  H   H34       1.0  0.650676080839115  0.08063735400929244  0.9228517101473405  1.0000
  H   H35       1.0  0.34932391910949895  0.08063735400929244  0.9228517101473405  1.0000
  H   H36       1.0  0.650676080839115  0.9193626459371506  0.42285171058953364  1.0000
  H   H37       1.0  0.7360649331984294  0.4167911563701151  0.5177183096181979  1.0000
  H   H38       1.0  0.26393506675018463  0.5832088435763277  0.017718310060391027  1.0000
  H   H39       1.0  0.7360649331984294  0.5832088435763277  0.017718310060391027  1.0000
  H   H40       1.0  0.26393506675018463  0.4167911563701151  0.5177183096181979  1.0000
  H   H41       1.0  0.23606493358924238  0.9167911563433366  0.5177183096181979  1.0000
  H   H42       1.0  0.7639350663593716  0.0832088436031063  0.017718310060391027  1.0000
  H   H43       1.0  0.23606493358924238  0.0832088436031063  0.017718310060391027  1.0000
  H   H44       1.0  0.7639350663593716  0.9167911563433366  0.5177183096181979  1.0000
  H   H45       1.0  0.841767137763939  0.4537558747253983  0.5894265267802135  1.0000
  H   H46       1.0  0.15823286218467508  0.5462441252210447  0.08942652722240661  1.0000
  H   H47       1.0  0.841767137763939  0.5462441252210447  0.08942652722240661  1.0000
  H   H48       1.0  0.15823286218467508  0.4537558747253983  0.5894265267802135  1.0000
  H   H49       1.0  0.34176713742451187  0.9537558746986198  0.5894265267802135  1.0000
  H   H50       1.0  0.6582328625241021  0.046244125247823176  0.08942652722240661  1.0000
  H   H51       1.0  0.34176713742451187  0.046244125247823176  0.08942652722240661  1.0000
  H   H52       1.0  0.6582328625241021  0.9537558746986198  0.5894265267802135  1.0000
  H   H53       1.0  0.9060084584333371  0.8009745783252623  0.22826182630283795  1.0000
  H   H54       1.0  0.09399154151527689  0.19902542162118061  0.7282618258606447  1.0000
  H   H55       1.0  0.9060084584333371  0.19902542162118061  0.7282618258606447  1.0000
  H   H56       1.0  0.09399154151527689  0.8009745783252623  0.22826182630283795  1.0000
  H   H57       1.0  0.4060084580939101  0.30097457835204083  0.22826182630283795  1.0000
  H   H58       1.0  0.5939915418547039  0.6990254215944021  0.7282618258606447  1.0000
  H   H59       1.0  0.4060084580939101  0.6990254215944021  0.7282618258606447  1.0000
  H   H60       1.0  0.5939915418547039  0.30097457835204083  0.22826182630283795  1.0000
  H   H61       1.0  0.6731997235914599  0.675805418577713  0.2844240784634539  1.0000
  H   H62       1.0  0.32680027635715414  0.3241945813687298  0.7844240790626673  1.0000
  H   H63       1.0  0.6731997235914599  0.3241945813687298  0.7844240790626673  1.0000
  H   H64       1.0  0.32680027635715414  0.675805418577713  0.2844240784634539  1.0000
  H   H65       1.0  0.17319972325203287  0.17580541860449164  0.2844240784634539  1.0000
  H   H66       1.0  0.8268002766965812  0.8241945813419512  0.7844240790626673  1.0000
  H   H67       1.0  0.17319972325203287  0.8241945813419512  0.7844240790626673  1.0000
  H   H68       1.0  0.8268002766965812  0.17580541860449164  0.2844240784634539  1.0000
  H   H69       1.0  0.7999003214635033  0.8656383542402524  0.2775420396373076  1.0000
  H   H70       1.0  0.20009967848511065  0.13436164570619055  0.7775420402365211  1.0000
  H   H71       1.0  0.7999003214635033  0.13436164570619055  0.7775420402365211  1.0000
  H   H72       1.0  0.20009967848511065  0.8656383542402524  0.2775420396373076  1.0000
  H   H73       1.0  0.29990032185431637  0.3656383542670309  0.2775420396373076  1.0000
  H   H74       1.0  0.7000996780942976  0.634361645679412  0.7775420402365211  1.0000
  H   H75       1.0  0.29990032185431637  0.634361645679412  0.7775420402365211  1.0000
  H   H76       1.0  0.7000996780942976  0.3656383542670309  0.2775420396373076  1.0000
  H   H77       1.0  0.6908262700358561  0.88441895987481  0.18703830535503427  1.0000
  H   H78       1.0  0.30917372991275793  0.11558104007163283  0.687038304912841  1.0000
  H   H79       1.0  0.6908262700358561  0.11558104007163283  0.687038304912841  1.0000
  H   H80       1.0  0.30917372991275793  0.88441895987481  0.18703830535503427  1.0000
  H   H81       1.0  0.1908262704266691  0.3844189599015886  0.18703830535503427  1.0000
  H   H82       1.0  0.8091737295219449  0.6155810400448543  0.687038304912841  1.0000
  H   H83       1.0  0.1908262704266691  0.6155810400448543  0.687038304912841  1.0000
  H   H84       1.0  0.8091737295219449  0.3844189599015886  0.18703830535503427  1.0000
  H   H85       1.0  0.7883403003608905  0.8490956530923596  0.09739878860841066  1.0000
  H   H86       1.0  0.2116596995877235  0.15090434685408338  0.5973987881662175  1.0000
  H   H87       1.0  0.7883403003608905  0.15090434685408338  0.5973987881662175  1.0000
  H   H88       1.0  0.2116596995877235  0.8490956530923596  0.09739878860841066  1.0000
  H   H89       1.0  0.2883403000214635  0.3490956531191381  0.09739878860841066  1.0000
  H   H90       1.0  0.7116596999271505  0.6509043468273048  0.5973987881662175  1.0000
  H   H91       1.0  0.2883403000214635  0.6509043468273048  0.5973987881662175  1.0000
  H   H92       1.0  0.7116596999271505  0.3490956531191381  0.09739878860841066  1.0000
  H   H93       1.0  0.6733361222071441  0.7673658215594039  0.01637373747082392  1.0000
  H   H94       1.0  0.3266638777414699  0.23263417838703906  0.5163737370286308  1.0000
  H   H95       1.0  0.6733361222071441  0.23263417838703906  0.5163737370286308  1.0000
  H   H96       1.0  0.3266638777414699  0.7673658215594039  0.01637373747082392  1.0000
  H   H97       1.0  0.17333612259795714  0.2673658215861824  0.01637373747082392  1.0000
  H   H98       1.0  0.8266638773506569  0.7326341783602605  0.5163737370286308  1.0000
  H   H99       1.0  0.17333612259795714  0.7326341783602605  0.5163737370286308  1.0000
  H   H100      1.0  0.8266638773506569  0.2673658215861824  0.01637373747082392  1.0000
  H   H101      1.0  0.5790018527535272  0.8091144903423869  0.09617264998719681  1.0000
  H   H102      1.0  0.4209981471950868  0.1908855096040561  0.5961726495450036  1.0000
  H   H103      1.0  0.5790018527535272  0.1908855096040561  0.5961726495450036  1.0000
  H   H104      1.0  0.4209981471950868  0.8091144903423869  0.09617264998719681  1.0000
  H   H105      1.0  0.07900185241410018  0.3091144903691654  0.09617264998719681  1.0000
  H   H106      1.0  0.9209981475345138  0.6908855100157495  0.5961726495450036  1.0000
  H   H107      1.0  0.07900185241410018  0.6908855100157495  0.5961726495450036  1.0000
  H   H108      1.0  0.9209981475345138  0.3091144903691654  0.09617264998719681  1.0000
  H   H109      1.0  0.5927114799946757  0.7336668974130145  0.1356916663465218  1.0000
  H   H110      1.0  0.4072885199539384  0.26633310253342846  0.6356916659043286  1.0000
  H   H111      1.0  0.5927114799946757  0.26633310253342846  0.6356916659043286  1.0000
  H   H112      1.0  0.4072885199539384  0.7336668974130145  0.1356916663465218  1.0000
  H   H113      1.0  0.09271147965524858  0.23366689743979302  0.1356916663465218  1.0000
  H   H114      1.0  0.9072885202933654  0.7663331025066499  0.6356916659043286  1.0000
  H   H115      1.0  0.09271147965524858  0.7663331025066499  0.6356916659043286  1.0000
  H   H116      1.0  0.9072885202933654  0.23366689743979302  0.1356916663465218  1.0000
  H   H117      1.0  0.6089079031722536  0.755875220578564  0.39749957963354365  1.0000
  H   H118      1.0  0.39109209677636037  0.24412477936787885  0.8974995791913505  1.0000
  H   H119      1.0  0.6089079031722536  0.24412477936787885  0.8974995791913505  1.0000
  H   H120      1.0  0.39109209677636037  0.755875220578564  0.39749957963354365  1.0000
  H   H121      1.0  0.10890790283282661  0.25587522060534257  0.39749957963354365  1.0000
  H   H122      1.0  0.8910920971157874  0.7441247793411004  0.8974995791913505  1.0000
  H   H123      1.0  0.10890790283282661  0.7441247793411004  0.8974995791913505  1.0000
  H   H124      1.0  0.8910920971157874  0.25587522060534257  0.39749957963354365  1.0000
  H   H125      1.0  0.5860451544721558  0.8303918822204579  0.3565177493765238  1.0000
  H   H126      1.0  0.4139548454764582  0.1696081177259851  0.8565177489343306  1.0000
  H   H127      1.0  0.5860451544721558  0.1696081177259851  0.8565177489343306  1.0000
  H   H128      1.0  0.4139548454764582  0.8303918822204579  0.3565177493765238  1.0000
  H   H129      1.0  0.0860451548629688  0.33039188224723637  0.3565177493765238  1.0000
  H   H130      1.0  0.9139548450856452  0.6696081176992066  0.8565177489343306  1.0000
  H   H131      1.0  0.0860451548629688  0.6696081176992066  0.8565177489343306  1.0000
  H   H132      1.0  0.9139548450856452  0.33039188224723637  0.3565177493765238  1.0000
  H   H133      1.0  0.6912730272397286  0.8102758803167462  0.4559637278372191  1.0000
  H   H134      1.0  0.3087269727088853  0.18972411962969674  0.9559637273950258  1.0000
  H   H135      1.0  0.6912730272397286  0.18972411962969674  0.9559637273950258  1.0000
  H   H136      1.0  0.3087269727088853  0.8102758803167462  0.4559637278372191  1.0000
  H   H137      1.0  0.19127302690030165  0.31027588034352477  0.4559637278372191  1.0000
  H   H138      1.0  0.8087269730483124  0.6897241196029182  0.9559637273950258  1.0000
  H   H139      1.0  0.19127302690030165  0.6897241196029182  0.9559637273950258  1.0000
  H   H140      1.0  0.8087269730483124  0.31027588034352477  0.4559637278372191  1.0000
  H   H141      1.0  0.5685396577280912  0.5513230546123727  0.6150542909930944  1.0000
  H   H142      1.0  0.43146034295076285  0.4486769457725422  0.11505429143528764  1.0000
  H   H143      1.0  0.5685396577280912  0.4486769457725422  0.11505429143528764  1.0000
  H   H144      1.0  0.43146034295076285  0.5513230546123727  0.6150542909930944  1.0000
  H   H145      1.0  0.06853965738866415  0.05132305420067931  0.6150542909930944  1.0000
  H   H146      1.0  0.9314603425599499  0.9486769457457637  0.11505429143528764  1.0000
  H   H147      1.0  0.06853965738866415  0.9486769457457637  0.11505429143528764  1.0000
  H   H148      1.0  0.9314603425599499  0.05132305420067931  0.6150542909930944  1.0000
  C   C1        1.0  0.8268494539816809  0.5449781180216426  0.4170213799820571  1.0000
  C   C2        1.0  0.17315054596693313  0.4550218819248003  0.917021379539864  1.0000
  C   C3        1.0  0.8268494539816809  0.4550218819248003  0.917021379539864  1.0000
  C   C4        1.0  0.17315054596693313  0.5449781180216426  0.4170213799820571  1.0000
  C   C5        1.0  0.3268494543724939  0.04497811804842114  0.4170213799820571  1.0000
  C   C6        1.0  0.6731505455761201  0.9550218818980218  0.917021379539864  1.0000
  C   C7        1.0  0.3268494543724939  0.9550218818980218  0.917021379539864  1.0000
  C   C8        1.0  0.6731505455761201  0.04497811804842114  0.4170213799820571  1.0000
  C   C9        1.0  0.6864623628728838  0.5050670564199375  0.34941748691646657  1.0000
  C   C10       1.0  0.3135376378059703  0.4949329435265054  0.8494174864742733  1.0000
  C   C11       1.0  0.6864623628728838  0.4949329435265054  0.8494174864742733  1.0000
  C   C12       1.0  0.3135376378059703  0.5050670564199375  0.34941748691646657  1.0000
  C   C13       1.0  0.18646236253345674  0.005067056446716106  0.34941748691646657  1.0000
  C   C14       1.0  0.8135376374151573  0.9949329434997268  0.8494174864742733  1.0000
  C   C15       1.0  0.18646236253345674  0.9949329434997268  0.8494174864742733  1.0000
  C   C16       1.0  0.8135376374151573  0.005067056446716106  0.34941748691646657  1.0000
  C   C17       1.0  0.692521993288231  0.5593910291605252  0.2900503350288245  1.0000
  C   C18       1.0  0.30747800739062303  0.4406089707859177  0.7900503356280378  1.0000
  C   C19       1.0  0.692521993288231  0.4406089707859177  0.7900503356280378  1.0000
  C   C20       1.0  0.30747800739062303  0.5593910291605252  0.2900503350288245  1.0000
  C   C21       1.0  0.19252199294880404  0.05939102918730371  0.2900503350288245  1.0000
  C   C22       1.0  0.80747800699981  0.9406089707591392  0.7900503356280378  1.0000
  C   C23       1.0  0.19252199294880404  0.9406089707591392  0.7900503356280378  1.0000
  C   C24       1.0  0.80747800699981  0.05939102918730371  0.2900503350288245  1.0000
  C   C25       1.0  0.8010327419322267  0.4430097132472571  0.49462699642097013  1.0000
  C   C26       1.0  0.19896725801638723  0.5569902866991858  0.9946269959787769  1.0000
  C   C27       1.0  0.8010327419322267  0.5569902866991858  0.9946269959787769  1.0000
  C   C28       1.0  0.19896725801638723  0.4430097132472571  0.49462699642097013  1.0000
  C   C29       1.0  0.3010327423230398  0.9430097132204786  0.49462699642097013  1.0000
  C   C30       1.0  0.6989672576255742  0.05699028672596441  0.9946269959787769  1.0000
  C   C31       1.0  0.3010327423230398  0.05699028672596441  0.9946269959787769  1.0000
  C   C32       1.0  0.6989672576255742  0.9430097132204786  0.49462699642097013  1.0000
  C   C33       1.0  0.8171221038876357  0.6405458656229672  0.29736732358006684  1.0000
  C   C34       1.0  0.18287789606097835  0.3594541343234756  0.7973673231378736  1.0000
  C   C35       1.0  0.8171221038876357  0.3594541343234756  0.7973673231378736  1.0000
  C   C36       1.0  0.18287789606097835  0.6405458656229672  0.29736732358006684  1.0000
  C   C37       1.0  0.31712210427844867  0.1405458656497458  0.29736732358006684  1.0000
  C   C38       1.0  0.6828778956701654  0.8594541342966971  0.7973673231378736  1.0000
  C   C39       1.0  0.31712210427844867  0.8594541342966971  0.7973673231378736  1.0000
  C   C40       1.0  0.6828778956701654  0.1405458656497458  0.29736732358006684  1.0000
  C   C41       1.0  0.9175201712364951  0.6527372356114719  0.287764415204789  1.0000
  C   C42       1.0  0.08247982871211892  0.34726276433497105  0.7877644158040024  1.0000
  C   C43       1.0  0.9175201712364951  0.34726276433497105  0.7877644158040024  1.0000
  C   C44       1.0  0.08247982871211892  0.6527372356114719  0.287764415204789  1.0000
  C   C45       1.0  0.41752017162730815  0.1527372356382504  0.287764415204789  1.0000
  C   C46       1.0  0.5824798283213058  0.8472627643081925  0.7877644158040024  1.0000
  C   C47       1.0  0.41752017162730815  0.8472627643081925  0.7877644158040024  1.0000
  C   C48       1.0  0.5824798283213058  0.1527372356382504  0.287764415204789  1.0000
  C   C49       1.0  0.9474065898820477  0.711316946478482  0.2619835965017351  1.0000
  C   C50       1.0  0.052593410066566364  0.2886830534679609  0.7619835971009484  1.0000
  C   C51       1.0  0.9474065898820477  0.2886830534679609  0.7619835971009484  1.0000
  C   C52       1.0  0.052593410066566364  0.711316946478482  0.2619835965017351  1.0000
  C   C53       1.0  0.4474065895426206  0.21131694650526056  0.2619835965017351  1.0000
  C   C54       1.0  0.5525934104059934  0.7886830534411824  0.7619835971009484  1.0000
  C   C55       1.0  0.4474065895426206  0.7886830534411824  0.7619835971009484  1.0000
  C   C56       1.0  0.5525934104059934  0.21131694650526056  0.2619835965017351  1.0000
  C   C57       1.0  0.8797553242672642  0.7564722615823869  0.2441155956945678  1.0000
  C   C58       1.0  0.12024467568134987  0.243527738364056  0.7441155952523746  1.0000
  C   C59       1.0  0.8797553242672642  0.243527738364056  0.7441155952523746  1.0000
  C   C60       1.0  0.12024467568134987  0.7564722615823869  0.2441155956945678  1.0000
  C   C61       1.0  0.37975532465807715  0.2564722616091654  0.2441155956945678  1.0000
  C   C62       1.0  0.6202446752905368  0.7435277387757494  0.7441155952523746  1.0000
  C   C63       1.0  0.37975532465807715  0.7435277387757494  0.7441155952523746  1.0000
  C   C64       1.0  0.6202446752905368  0.2564722616091654  0.2441155956945678  1.0000
  C   C65       1.0  0.7800871091986576  0.7441587205810932  0.24911748629097388  1.0000
  C   C66       1.0  0.21991289074995635  0.2558412793653497  0.7491174868901873  1.0000
  C   C67       1.0  0.7800871091986576  0.2558412793653497  0.7491174868901873  1.0000
  C   C68       1.0  0.21991289074995635  0.7441587205810932  0.24911748629097388  1.0000
  C   C69       1.0  0.2800871095894707  0.24415872060787178  0.24911748629097388  1.0000
  C   C70       1.0  0.7199128903591433  0.7558412793385711  0.7491174868901873  1.0000
  C   C71       1.0  0.2800871095894707  0.7558412793385711  0.7491174868901873  1.0000
  C   C72       1.0  0.7199128903591433  0.24415872060787178  0.24911748629097388  1.0000
  C   C73       1.0  0.7507059764960003  0.6859693633516248  0.2755830735886107  1.0000
  C   C74       1.0  0.24929402345261364  0.3140306365948181  0.7755830741878241  1.0000
  C   C75       1.0  0.7507059764960003  0.3140306365948181  0.7755830741878241  1.0000
  C   C76       1.0  0.24929402345261364  0.6859693633516248  0.2755830735886107  1.0000
  C   C77       1.0  0.2507059768868134  0.18596936337840334  0.2755830735886107  1.0000
  C   C78       1.0  0.7492940230618006  0.8140306370065116  0.7755830741878241  1.0000
  C   C79       1.0  0.2507059768868134  0.8140306370065116  0.7755830741878241  1.0000
  C   C80       1.0  0.7492940230618006  0.18596936337840334  0.2755830735886107  1.0000
  C   C81       1.0  0.7023060487119248  0.7916641447160634  0.23215441577002838  1.0000
  C   C82       1.0  0.29769395123668924  0.20833585523037962  0.7321544153278351  1.0000
  C   C83       1.0  0.7023060487119248  0.20833585523037962  0.7321544153278351  1.0000
  C   C84       1.0  0.29769395123668924  0.7916641447160634  0.23215441577002838  1.0000
  C   C85       1.0  0.20230604837249777  0.29166414474284186  0.23215441577002838  1.0000
  C   C86       1.0  0.7976939515761162  0.708335855203601  0.7321544153278351  1.0000
  C   C87       1.0  0.20230604837249777  0.708335855203601  0.7321544153278351  1.0000
  C   C88       1.0  0.7976939515761162  0.29166414474284186  0.23215441577002838  1.0000
  C   C89       1.0  0.7484663288398548  0.8511334205458387  0.19667462517904086  1.0000
  C   C90       1.0  0.2515336718389994  0.1488665794006042  0.6966746257782543  1.0000
  C   C91       1.0  0.7484663288398548  0.1488665794006042  0.6966746257782543  1.0000
  C   C92       1.0  0.2515336718389994  0.8511334205458387  0.19667462517904086  1.0000
  C   C93       1.0  0.24846632850042763  0.3511334205726173  0.19667462517904086  1.0000
  C   C94       1.0  0.7515336714481864  0.6488665793738256  0.6966746257782543  1.0000
  C   C95       1.0  0.24846632850042763  0.6488665793738256  0.6966746257782543  1.0000
  C   C96       1.0  0.7515336714481864  0.3511334205726173  0.19667462517904086  1.0000
  C   C97       1.0  0.6329024355717621  0.7742595632885375  0.1134595406909483  1.0000
  C   C98       1.0  0.367097564376852  0.22574043709637737  0.613459540248755  1.0000
  C   C99       1.0  0.6329024355717621  0.22574043709637737  0.613459540248755  1.0000
  C   C100      1.0  0.367097564376852  0.7742595632885375  0.1134595406909483  1.0000
  C   C101      1.0  0.13290243523233497  0.2742595628768441  0.1134595406909483  1.0000
  C   C102      1.0  0.867097564716279  0.7257404370695989  0.613459540248755  1.0000
  C   C103      1.0  0.13290243523233497  0.7257404370695989  0.613459540248755  1.0000
  C   C104      1.0  0.867097564716279  0.2742595628768441  0.1134595406909483  1.0000
  C   C105      1.0  0.6440043515403162  0.7974398078573096  0.3687276307412422  1.0000
  C   C106      1.0  0.35599564840829784  0.20256019208913337  0.8687276313404557  1.0000
  C   C107      1.0  0.6440043515403162  0.20256019208913337  0.8687276313404557  1.0000
  C   C108      1.0  0.35599564840829784  0.7974398078573096  0.3687276307412422  1.0000
  C   C109      1.0  0.14400435193112918  0.29743980788408814  0.3687276307412422  1.0000
  C   C110      1.0  0.855995648017485  0.7025601920623548  0.8687276313404557  1.0000
  C   C111      1.0  0.14400435193112918  0.7025601920623548  0.8687276313404557  1.0000
  C   C112      1.0  0.855995648017485  0.29743980788408814  0.3687276307412422  1.0000
  C   C113      1.0  0.500000000339427  0.5752212584832743  0.6074748690139246  1.0000
  C   C114      1.0  0.500000000339427  0.4247787414631687  0.10747486841471116  1.0000
  C   C115      1.0  0.0  0.0752212585100528  0.6074748690139246  1.0000
  C   C116      1.0  0.0  0.9247787414363902  0.10747486841471116  1.0000
  N   N1        1.0  0.0  0.6176950498853276  0.3053395308129264  1.0000
  N   N2        1.0  0.0  0.3823049500611153  0.8053395303707332  1.0000
  N   N3        1.0  0.500000000339427  0.11769504991210622  0.3053395308129264  1.0000
  N   N4        1.0  0.500000000339427  0.8823049500343367  0.8053395303707332  1.0000
  N   N5        1.0  0.7702668243759728  0.4972881265554674  0.4279738430361929  1.0000
  N   N6        1.0  0.22973317557264117  0.5027118733909756  0.9279738425939997  1.0000
  N   N7        1.0  0.7702668243759728  0.5027118733909756  0.9279738425939997  1.0000
  N   N8        1.0  0.22973317557264117  0.4972881265554674  0.4279738430361929  1.0000
  N   N9        1.0  0.2702668240365458  0.9972881265286888  0.4279738430361929  1.0000
  N   N10       1.0  0.7297331759120682  0.0027118734177540875  0.9279738425939997  1.0000
  N   N11       1.0  0.2702668240365458  0.0027118734177540875  0.9279738425939997  1.0000
  N   N12       1.0  0.7297331759120682  0.9972881265286888  0.4279738430361929  1.0000
  N   N13       1.0  0.780926990396593  0.583729554060286  0.33313329583564333  1.0000
  N   N14       1.0  0.21907300955202103  0.41627044588615697  0.8331332953934502  1.0000
  N   N15       1.0  0.780926990396593  0.41627044588615697  0.8331332953934502  1.0000
  N   N16       1.0  0.21907300955202103  0.583729554060286  0.33313329583564333  1.0000
  N   N17       1.0  0.280926990787406  0.08372955408706452  0.33313329583564333  1.0000
  N   N18       1.0  0.719073009161208  0.9162704458593783  0.8331332953934502  1.0000
  N   N19       1.0  0.280926990787406  0.9162704458593783  0.8331332953934502  1.0000
  N   N20       1.0  0.719073009161208  0.08372955408706452  0.33313329583564333  1.0000
  I   I1        1.0  0.0  0.4645082585595846  0.21781405389261715  1.0000
  I   I2        1.0  0.0  0.5354917418253303  0.7178140544918306  1.0000
  I   I3        1.0  0.500000000339427  0.9645082585328062  0.21781405389261715  1.0000
  I   I4        1.0  0.500000000339427  0.03549174141363684  0.7178140544918306  1.0000
  I   I5        1.0  0.500000000339427  0.6075073201981847  0.014044507628095336  1.0000
  I   I6        1.0  0.500000000339427  0.39249267974825836  0.5140445071859021  1.0000
  I   I7        1.0  0.0  0.10750732022496313  0.014044507628095336  1.0000
  I   I8        1.0  0.0  0.8924926797214798  0.5140445071859021  1.0000
  I   I9        1.0  0.500000000339427  0.6399195430210155  0.4602479247272071  1.0000
  I   I10       1.0  0.500000000339427  0.3600804569254274  0.9602479253264206  1.0000
  I   I11       1.0  0.0  0.139919543047794  0.4602479247272071  1.0000
  I   I12       1.0  0.0  0.8600804568986489  0.9602479253264206  1.0000
