data_image0
_chemical_formula_structural       H96C54N8O34S16
_chemical_formula_sum              "H96 C54 N8 O34 S16"
_cell_length_a       7.467275953917022
_cell_length_b       27.29006419825711
_cell_length_c       10.513501929045393
_cell_angle_alpha    90.0
_cell_angle_beta     108.01231826852622
_cell_angle_gamma    90.0

_space_group_name_H-M_alt    "P 1"
_space_group_IT_number       1

loop_
  _space_group_symop_operation_xyz
  'x, y, z'

loop_
  _atom_site_type_symbol
  _atom_site_label
  _atom_site_symmetry_multiplicity
  _atom_site_fract_x
  _atom_site_fract_y
  _atom_site_fract_z
  _atom_site_occupancy
  H   H1        1.0  0.836742425320832  0.25557416205878464  0.7577095027203732  1.0000
  H   H2        1.0  0.1632575744840463  0.7555741620907173  0.242290497602617  1.0000
  H   H3        1.0  0.08278828198030203  0.23878186920557593  0.8091027941879679  1.0000
  H   H4        1.0  0.9172117178245762  0.7387818692375087  0.19089720613502237  1.0000
  H   H5        1.0  0.9391782410421198  0.23136690753564612  0.6366619611611825  1.0000
  H   H6        1.0  0.06082175876190534  0.7313669075675788  0.3633380382104627  1.0000
  H   H7        1.0  0.6572329753281964  0.3422939540243581  0.8428969127666012  1.0000
  H   H8        1.0  0.34276702447668195  0.8422939536898569  0.1571030875563889  1.0000
  H   H9        1.0  0.4298244362113411  0.37004125555134976  0.8172070118687906  1.0000
  H   H10       1.0  0.5701755635935373  0.8700412555832824  0.18279298845419947  1.0000
  H   H11       1.0  0.5342717456816252  0.36992887985381673  0.6825272592399731  1.0000
  H   H12       1.0  0.4657282555314447  0.8699288795193156  0.3174727413917167  1.0000
  H   H13       1.0  0.0031926593958358017  0.33039063940992247  0.44616915281048547  1.0000
  H   H14       1.0  0.9968073404081894  0.8303906394418551  0.5538308465611597  1.0000
  H   H15       1.0  0.050768841492184254  0.41275619903889377  0.4686047909928654  1.0000
  H   H16       1.0  0.9492311583118409  0.9127561990708263  0.5313952083787797  1.0000
  H   H17       1.0  0.22953233904990233  0.48637166345866245  0.4439751879604929  1.0000
  H   H18       1.0  0.7704676607549759  0.986371663490595  0.5560248123624972  1.0000
  H   H19       1.0  0.5442618568223171  0.4775438253029945  0.40737666170460934  1.0000
  H   H20       1.0  0.45573814298256116  0.9775438253349271  0.5926233386183808  1.0000
  H   H21       1.0  0.6757170891471609  0.3944864948572582  0.40005728804740975  1.0000
  H   H22       1.0  0.32428291065771747  0.8944864948891909  0.5999427122755805  1.0000
  H   H23       1.0  0.5018374293633165  0.3209782452823775  0.4292035490346182  1.0000
  H   H24       1.0  0.4981625704407086  0.8209782453143102  0.570796450337027  1.0000
  H   H25       1.0  0.2919652201277011  0.25510965637246935  0.4185919694047751  1.0000
  H   H26       1.0  0.7080347796771771  0.755109656404402  0.5814080309182151  1.0000
  H   H27       1.0  0.05940973155594016  0.24400811561393393  0.4172528815320051  1.0000
  H   H28       1.0  0.940590268248085  0.7440081156458666  0.5827471178396401  1.0000
  H   H29       1.0  0.6120349557392174  0.23292124869409267  0.08543551766686766  1.0000
  H   H30       1.0  0.38796504406480764  0.7329212487260254  0.9145644817047774  1.0000
  H   H31       1.0  0.7954486794639573  0.2075727278927316  0.22394506521007848  1.0000
  H   H32       1.0  0.20455132034006784  0.7075727279246643  0.7760549341615666  1.0000
  H   H33       1.0  0.8259052064154794  0.21092679915233115  0.05994900091347174  1.0000
  H   H34       1.0  0.17409479338854572  0.7109267991842637  0.9400509984581733  1.0000
  H   H35       1.0  0.3738314745791534  0.3438712027873987  0.19038066519668412  1.0000
  H   H36       1.0  0.626168525225725  0.8438712028193314  0.8096193351263061  1.0000
  H   H37       1.0  0.1641525006752257  0.3406002735088336  0.04502190499385896  1.0000
  H   H38       1.0  0.8358474991287995  0.8406002735407662  0.9549780943777861  1.0000
  H   H39       1.0  0.38071627161180227  0.3144015344803757  0.03705592491333492  1.0000
  H   H40       1.0  0.6192837281922229  0.8144015345123085  0.9629440744583103  1.0000
  H   H41       1.0  0.7470421614490137  0.16156252905706195  0.5731540669848687  1.0000
  H   H42       1.0  0.2529578397640561  0.6615625290889946  0.42684593364682133  1.0000
  H   H43       1.0  0.5175827705451631  0.18760999398187503  0.5500420527143371  1.0000
  H   H44       1.0  0.48241722925971514  0.6876099940138076  0.4499579476086531  1.0000
  H   H45       1.0  0.5943277042328403  0.17510479217946245  0.40568295759081224  1.0000
  H   H46       1.0  0.4056722955711848  0.6751047922113952  0.5943170417808329  1.0000
  H   H47       1.0  0.9723813262926025  0.08885068032030709  0.6024785283575029  1.0000
  H   H48       1.0  0.027618673512275645  0.588850679985806  0.3975214719654873  1.0000
  H   H49       1.0  0.19618200922298956  0.0620242326182619  0.6130076434169882  1.0000
  H   H50       1.0  0.8038179905818887  0.5620242326501945  0.3869923569060019  1.0000
  H   H51       1.0  0.992887583271463  0.05033559027273117  0.467590797216071  1.0000
  H   H52       1.0  0.007112416533415282  0.5503355903046638  0.5324092031069192  1.0000
  H   H53       1.0  0.3627439674612064  0.07380700739167324  0.2537191609750225  1.0000
  H   H54       1.0  0.6372560323428188  0.5738070074236059  0.7462808383966226  1.0000
  H   H55       1.0  0.337681726878631  0.9946610184864857  0.3212012969294526  1.0000
  H   H56       1.0  0.6623182729262471  0.49466101882098684  0.6787987033935375  1.0000
  H   H57       1.0  0.139897317998725  0.9208225831731421  0.31598792530879377  1.0000
  H   H58       1.0  0.8601026818061531  0.4208225831412095  0.6840120750141965  1.0000
  H   H59       1.0  0.7919959649340125  0.927967564532785  0.24245491281025433  1.0000
  H   H60       1.0  0.20800403487001265  0.42796756450085227  0.7575450865613907  1.0000
  H   H61       1.0  0.6404997219976735  0.009875763869299083  0.17492613437105375  1.0000
  H   H62       1.0  0.3595002778072047  0.5098757639012317  0.8250738659519363  1.0000
  H   H63       1.0  0.8341242736457459  0.08240091681952201  0.1783905863248578  1.0000
  H   H64       1.0  0.16587572615913243  0.5824009168514547  0.8216094139981326  1.0000
  H   H65       1.0  0.025650342951580446  0.14278916098148517  0.15336059318173767  1.0000
  H   H66       1.0  0.9743496568532979  0.6427891610134179  0.8466394071412525  1.0000
  H   H67       1.0  0.2638890395179563  0.1573699639839718  0.1776404736989435  1.0000
  H   H68       1.0  0.7361109616951136  0.6573699640159045  0.8223595269327464  1.0000
  H   H69       1.0  0.7199233245888405  0.04957818604495658  0.7911450659768122  1.0000
  H   H70       1.0  0.2800766752160378  0.5495781857104555  0.20885493434617786  1.0000
  H   H71       1.0  0.8564180450485537  0.03173397371689982  0.9594092084635706  1.0000
  H   H72       1.0  0.14358195475632454  0.5317339737488325  0.040590791859419564  1.0000
  H   H73       1.0  0.9626943877324716  0.030645600315348905  0.8260654310034935  1.0000
  H   H74       1.0  0.03730561207240655  0.5306456003472816  0.1739345693194968  1.0000
  H   H75       1.0  0.34941324156813425  0.1887547314868163  0.9644970694573615  1.0000
  H   H76       1.0  0.650586758235891  0.6887547315187489  0.03550292991428355  1.0000
  H   H77       1.0  0.2591314273814464  0.16181075896047245  0.7999784871079003  1.0000
  H   H78       1.0  0.7408685738316234  0.6618107589924052  0.20002151352378966  1.0000
  H   H79       1.0  0.5075223544564711  0.15831637216433986  0.8895410181037968  1.0000
  H   H80       1.0  0.4924776467557457  0.6583163721962725  0.11045898157654795  1.0000
  H   H81       1.0  0.4766223358462906  0.4329045221064194  0.1524901348599448  1.0000
  H   H82       1.0  0.5233776639585876  0.9329045221383521  0.8475098654630454  1.0000
  H   H83       1.0  0.5290945685473344  0.40182011007142765  0.019516862665602642  1.0000
  H   H84       1.0  0.47090543266488244  0.9018201101033603  0.9804831370147421  1.0000
  H   H85       1.0  0.5228265338312846  0.4669597688529387  0.021479800159772595  1.0000
  H   H86       1.0  0.4771734659735936  0.9669597688848715  0.9785202001632177  1.0000
  H   H87       1.0  0.858525886475888  0.46894612621751625  0.003756763981518418  1.0000
  H   H88       1.0  0.14147411332813717  0.9689461262494489  0.9962432353901267  1.0000
  H   H89       1.0  0.8749391013219361  0.4040127447081693  0.008389333835533147  1.0000
  H   H90       1.0  0.12506089848208893  0.9040127447401018  0.9916106655361119  1.0000
  H   H91       1.0  0.04396464753457767  0.4392803821533559  0.13003336434239088  1.0000
  H   H92       1.0  0.9560353522694474  0.9392803821852886  0.8699666350292542  1.0000
  H   H93       1.0  0.7617225548265903  0.5046771249764812  0.20779915673783753  1.0000
  H   H94       1.0  0.23827744497743483  0.004677124944548563  0.7922008426338077  1.0000
  H   H95       1.0  0.8076173767685141  0.4018858449845802  0.22504720210928025  1.0000
  H   H96       1.0  0.19238262303636416  0.9018858450165128  0.77495279821371  1.0000
  C   C1        1.0  0.964733444362455  0.2530230705884888  0.7281040141730548  1.0000
  C   C2        1.0  0.035266555442423166  0.7530230706204214  0.27189598614993543  1.0000
  C   C3        1.0  0.5199627208363764  0.35035776832692955  0.7697093286264662  1.0000
  C   C4        1.0  0.4800372789676487  0.8503577683588622  0.23029067074517884  1.0000
  C   C5        1.0  0.1499624706127924  0.3182353957435779  0.4734377625636333  1.0000
  C   C6        1.0  0.8500375291912328  0.8182353957755105  0.5265622368080118  1.0000
  C   C7        1.0  0.2629891109630246  0.36155640559578284  0.45066130969735  1.0000
  C   C8        1.0  0.7370108888418536  0.8615564052612817  0.5493386906256402  1.0000
  C   C9        1.0  0.18867439774243241  0.40856027963144453  0.4543244629226788  1.0000
  C   C10       1.0  0.8113256020615927  0.9085602792969435  0.5456755364489664  1.0000
  C   C11       1.0  0.28908642114504424  0.45020922049661816  0.43990926892702276  1.0000
  C   C12       1.0  0.7109135786589809  0.9502092205285508  0.5600907304446224  1.0000
  C   C13       1.0  0.4648330610558109  0.44537189988641485  0.4200881729833818  1.0000
  C   C14       1.0  0.5351669387490673  0.9453718999183476  0.5799118273396084  1.0000
  C   C15       1.0  0.538858140145189  0.398662728711896  0.4151509196773863  1.0000
  C   C16       1.0  0.4611418596596893  0.8986627287438287  0.5848490806456038  1.0000
  C   C17       1.0  0.4391501426203699  0.3569268580402271  0.43049816733633073  1.0000
  C   C18       1.0  0.5608498571845083  0.8569268580721597  0.5695018329866595  1.0000
  C   C19       1.0  0.15147065337909682  0.27134453866447567  0.3927043824562411  1.0000
  C   C20       1.0  0.8485293464257815  0.7713445386964083  0.607295617866749  1.0000
  C   C21       1.0  0.7641008884468412  0.2282568573216411  0.1303287452869133  1.0000
  C   C22       1.0  0.23589911276622863  0.7282568573535737  0.8696712553447766  1.0000
  C   C23       1.0  0.29533128380267115  0.322767043566081  0.10241179720032775  1.0000
  C   C24       1.0  0.704668716001354  0.8227670435980136  0.8975882021713175  1.0000
  C   C25       1.0  0.6015315281198699  0.16370973397289873  0.5069905598992852  1.0000
  C   C26       1.0  0.3984684716841552  0.6637097340048315  0.49300943947235987  1.0000
  C   C27       1.0  0.06434358148498327  0.07645697624021185  0.5455994652985202  1.0000
  C   C28       1.0  0.9356564183190419  0.5764569762721445  0.454400534073125  1.0000
  C   C29       1.0  0.22810276357600345  0.08733723499823129  0.2610638160108668  1.0000
  C   C30       1.0  0.7718972362288749  0.587337235030164  0.7389361843121235  1.0000
  C   C31       1.0  0.10019397340764052  0.04351110870878182  0.24944778138447327  1.0000
  C   C32       1.0  0.8998060263972377  0.5435111087407145  0.7505522189385169  1.0000
  C   C33       1.0  0.18423855893200491  0.9976402767765851  0.2878536603748259  1.0000
  C   C34       1.0  0.8157614408720202  0.4976402771110861  0.7121463389968192  1.0000
  C   C35       1.0  0.07373981244616712  0.9562751337047671  0.285438808405921  1.0000
  C   C36       1.0  0.9262601887669027  0.45627513367283457  0.714561192225769  1.0000
  C   C37       1.0  0.877635857604969  0.9603839422874587  0.2443580227177032  1.0000
  C   C38       1.0  0.12236414219905614  0.46038394225552604  0.755641976653942  1.0000
  C   C39       1.0  0.7930178355960305  0.005849571801674075  0.20568855199602942  1.0000
  C   C40       1.0  0.20698216420884777  0.5058495718336067  0.7943114483269609  1.0000
  C   C41       1.0  0.9035064492825414  0.047293648363144106  0.20754914292321275  1.0000
  C   C42       1.0  0.0964935505214838  0.5472936483950768  0.7924508564484324  1.0000
  C   C43       1.0  0.16104871342513377  0.12741680689128146  0.15442331548752433  1.0000
  C   C44       1.0  0.8389512863788914  0.6274168069232142  0.8455766838841208  1.0000
  C   C45       1.0  0.8601465964050202  0.04863583831674411  0.8657840283845827  1.0000
  C   C46       1.0  0.13985340339985797  0.5486358383486768  0.13421597193840742  1.0000
  C   C47       1.0  0.365149054754131  0.15929299756933624  0.8982377418152725  1.0000
  C   C48       1.0  0.6348509450507472  0.6592929976012689  0.10176225850771775  1.0000
  C   C49       1.0  0.5627213745189269  0.43413370169926707  0.08480136307875188  1.0000
  C   C50       1.0  0.43727862528509825  0.9341337017311997  0.9151986362928933  1.0000
  C   C51       1.0  0.8945451282063004  0.43701646296462987  0.07085151511881055  1.0000
  C   C52       1.0  0.10545487159857793  0.9370164629965625  0.9291484852041796  1.0000
  C   C53       1.0  0.7720158276275547  0.4350466299290801  0.1630214919740457  1.0000
  C   C54       1.0  0.2279841721764703  0.9350466299610128  0.8369785073975995  1.0000
  N   N1        1.0  0.19295788126509705  0.3050775058466779  0.6183312126586911  1.0000
  N   N2        1.0  0.807042118538928  0.8050775058786106  0.38166878671295407  1.0000
  N   N3        1.0  0.08969061842357905  0.2800170360349698  0.24699094339455147  1.0000
  N   N4        1.0  0.9103093813812991  0.7800170360669024  0.7530090569284387  1.0000
  N   N5        1.0  0.2832169595896513  0.110415885360667  0.3972122337441202  1.0000
  N   N6        1.0  0.7167830416225655  0.6104158850261658  0.6027877659362246  1.0000
  N   N7        1.0  0.13933242601797796  0.10896907894375422  0.0183404350440149  1.0000
  N   N8        1.0  0.8606675737860471  0.6089690789756869  0.9816595643276302  1.0000
  O   O1        1.0  0.09611338274574797  0.34112994943392444  0.8126918629970953  1.0000
  O   O2        1.0  0.9038866170582771  0.8411299494658572  0.1873081363745498  1.0000
  O   O3        1.0  0.8601610028713702  0.3330116391071151  0.5876417325811052  1.0000
  O   O4        1.0  0.13983899693265492  0.8330116391390477  0.41235826679053983  1.0000
  O   O5        1.0  0.39552603016597276  0.2677691784421193  0.8342727370573636  1.0000
  O   O6        1.0  0.6044739696380524  0.767769178474052  0.16572726231428156  1.0000
  O   O7        1.0  0.5083892515765794  0.2688000078236712  0.6345688396557315  1.0000
  O   O8        1.0  0.4916107482282988  0.7688000078556039  0.36543116066725867  1.0000
  O   O9        1.0  0.778810086745134  0.31080177380241164  0.25951274767406735  1.0000
  O   O10       1.0  0.22118991305889113  0.8108017738343443  0.7404872516975778  1.0000
  O   O11       1.0  0.845199072846727  0.31240825188474614  0.04081164935580018  1.0000
  O   O12       1.0  0.15480092695815137  0.8124082519166789  0.9591883509671899  1.0000
  O   O13       1.0  0.4023528331962624  0.24388061756282187  0.250101773234  1.0000
  O   O14       1.0  0.5976471666086159  0.7438806172283208  0.7498982270889901  1.0000
  O   O15       1.0  0.13170947271012493  0.23714578291147145  0.04206019336147126  1.0000
  O   O16       1.0  0.8682905270947533  0.737145782943404  0.9579398069615188  1.0000
  O   O17       1.0  0.487330677284842  0.09665689610830824  0.09525416363729193  1.0000
  O   O18       1.0  0.5126693225191832  0.5966568961402409  0.9047458357343533  1.0000
  O   O19       1.0  0.5057769048285591  0.08884359935491996  0.629663688325208  1.0000
  O   O20       1.0  0.4942230949754662  0.5888435993868526  0.37033631104643705  1.0000
  O   O21       1.0  0.60349579981244  0.07238958016544964  0.4277776064932667  1.0000
  O   O22       1.0  0.39650419999158526  0.5723895801973823  0.5722223928783785  1.0000
  O   O23       1.0  0.21207754898439596  0.1647177425946504  0.5701841875721632  1.0000
  O   O24       1.0  0.7879224508204822  0.6647177426265831  0.42981581275082703  1.0000
  O   O25       1.0  0.959102704740119  0.14508256232877836  0.3604269867662255  1.0000
  O   O26       1.0  0.04089729506475917  0.645082562360711  0.6395730135567648  1.0000
  O   O27       1.0  0.2989406793781166  0.06511118358283237  0.8710495473753181  1.0000
  O   O28       1.0  0.7010593204267617  0.5651111832483313  0.128950452947672  1.0000
  O   O29       1.0  0.7993095286590791  0.13385654220019375  0.9599906496037874  1.0000
  O   O30       1.0  0.20069047255313766  0.6338565422321264  0.04000935007655743  1.0000
  O   O31       1.0  0.9501544901187254  0.1322276354421496  0.7794206289598469  1.0000
  O   O32       1.0  0.04984551109434434  0.6322276354740822  0.22057937167184313  1.0000
  O   O33       1.0  0.8147043002321646  0.47502565350608145  0.25767879404697847  1.0000
  O   O34       1.0  0.1852956995718606  0.9750256535380141  0.7423212053246667  1.0000
  S   S1        1.0  0.01852000450091878  0.3133333054066654  0.6914163955403069  1.0000
  S   S2        1.0  0.981479996712151  0.813333305438598  0.30858360509138305  1.0000
  S   S3        1.0  0.4132753711160466  0.29280275861389593  0.717720569427028  1.0000
  S   S4        1.0  0.5867246286879785  0.7928027586458286  0.2822794299446172  1.0000
  S   S5        1.0  0.8568888738797708  0.28793403646525084  0.16476725835503228  1.0000
  S   S6        1.0  0.1431111273332992  0.7879340364971835  0.8352327422766577  1.0000
  S   S7        1.0  0.2371512103273455  0.26568826688443864  0.15668954310736222  1.0000
  S   S8        1.0  0.7628487908848711  0.7656882669163714  0.8433104565729826  1.0000
  S   S9        1.0  0.5110343127491989  0.10362284564286967  0.49884669543129995  1.0000
  S   S10       1.0  0.48896568705567944  0.6036228453083686  0.5011533048916902  1.0000
  S   S11       1.0  0.12057542671468136  0.12928481532210281  0.46885993421710853  1.0000
  S   S12       1.0  0.8794245730901968  0.6292848153540355  0.5311400661058816  1.0000
  S   S13       1.0  0.3369287700599622  0.10307300193817957  0.971728594302542  1.0000
  S   S14       1.0  0.6630712297449161  0.6030730019701122  0.0282714060204483  1.0000
  S   S15       1.0  0.9250812044533602  0.11057683881127414  0.8982913675658459  1.0000
  S   S16       1.0  0.07491879535151813  0.6105768388432068  0.1017086327571442  1.0000
