data_image0
_chemical_formula_structural       H36C38N2O2I4
_chemical_formula_sum              "H36 C38 N2 O2 I4"
_cell_length_a       8.776546809842152
_cell_length_b       10.216774530342976
_cell_length_c       11.100816623271328
_cell_angle_alpha    90.06753131658881
_cell_angle_beta     107.50458246714102
_cell_angle_gamma    110.56681255572337

_space_group_name_H-M_alt    "P 1"
_space_group_IT_number       1

loop_
  _space_group_symop_operation_xyz
  'x, y, z'

loop_
  _atom_site_type_symbol
  _atom_site_label
  _atom_site_symmetry_multiplicity
  _atom_site_fract_x
  _atom_site_fract_y
  _atom_site_fract_z
  _atom_site_occupancy
  H   H1        1.0  0.2926055788960017  0.13964017766635373  0.25795479616637557  1.0000
  H   H2        1.0  0.7073944203966117  0.8603598219393941  0.742045203817715  1.0000
  H   H3        1.0  0.041797528029331184  0.1330666858132246  0.08357721987836647  1.0000
  H   H4        1.0  0.9582024723987116  0.8669333137903195  0.9164227800977626  1.0000
  H   H5        1.0  0.007903035413491943  0.3519252946416624  0.006715384954634956  1.0000
  H   H6        1.0  0.9920969643058207  0.6480747060088705  0.9932846150248055  1.0000
  H   H7        1.0  0.2343283159944185  0.5863076060583794  0.1144053465522607  1.0000
  H   H8        1.0  0.7656716841499794  0.41369239472324465  0.8855946543785459  1.0000
  H   H9        1.0  0.5093163170147244  0.7229871912946954  0.2752574980096415  1.0000
  H   H10       1.0  0.4906836834133185  0.2770128083088487  0.7247425019664876  1.0000
  H   H11       1.0  0.7668523000308279  0.7275621708548041  0.4468637341054647  1.0000
  H   H12       1.0  0.23314769926178538  0.27243782875094386  0.5531362658786259  1.0000
  H   H13       1.0  0.8487757801779635  0.40846304598276423  0.5739064985957595  1.0000
  H   H14       1.0  0.15122422025007928  0.5915369536207797  0.42609350138036955  1.0000
  H   H15       1.0  0.9405190877505833  0.7295263785909436  0.5953827467423903  1.0000
  H   H16       1.0  0.05948091154202996  0.27047362101480416  0.4046172532417002  1.0000
  H   H17       1.0  0.19056974255821124  0.8719809086479404  0.7375836147907966  1.0000
  H   H18       1.0  0.8094302582965309  0.12801909200038847  0.2624163851806824  1.0000
  H   H19       1.0  0.46043946667006524  0.9149616663376762  0.9132877149187989  1.0000
  H   H20       1.0  0.5395605330492474  0.08503833431285666  0.08671228506064145  1.0000
  H   H21       1.0  0.3361291876870496  0.46677216719667636  0.9093113656572885  1.0000
  H   H22       1.0  0.6638708120322631  0.5332278334538565  0.09068863432215196  1.0000
  H   H23       1.0  0.06568978243436126  0.4226600262216665  0.7337478841602348  1.0000
  H   H24       1.0  0.9343102179936816  0.5773399733818775  0.2662521158158943  1.0000
  H   H25       1.0  0.7850571783528741  0.8291912419849552  0.1476889699135802  1.0000
  H   H26       1.0  0.21494282207516863  0.17080875761858882  0.8523110300625488  1.0000
  H   H27       1.0  0.6130866217036708  0.892525323433948  0.12782751816485668  1.0000
  H   H28       1.0  0.38691337915107143  0.10747467721438102  0.8721724818066222  1.0000
  H   H29       1.0  0.7177056428424523  0.9101139572884858  0.00823853316048065  1.0000
  H   H30       1.0  0.28229435758559057  0.08988604231505821  0.9917614668156486  1.0000
  H   H31       1.0  0.5920764757795168  0.18561731816778443  0.37583130174051604  1.0000
  H   H32       1.0  0.4079235235130965  0.8143826814379633  0.6241686982435746  1.0000
  H   H33       1.0  0.42898510197369705  0.17752648877788335  0.44365339556641614  1.0000
  H   H34       1.0  0.5710148984543458  0.8224735108256607  0.556346604409713  1.0000
  H   H35       1.0  0.6465351511095935  0.2599210486516424  0.5360614662285881  1.0000
  H   H36       1.0  0.35346484974514875  0.7400789519966866  0.4639385337428909  1.0000
  C   C1        1.0  0.4089567170363272  0.3689103193375402  0.291018980412932  1.0000
  C   C2        1.0  0.591043282256286  0.6310896802682077  0.7089810195711586  1.0000
  C   C3        1.0  0.2811085491328536  0.2386787448344902  0.23044672454336437  1.0000
  C   C4        1.0  0.7188914505864591  0.7613212558160426  0.7695532754360762  1.0000
  C   C5        1.0  0.139525979832037  0.23495026930430105  0.1301151561707663  1.0000
  C   C6        1.0  0.8604740210227052  0.765049731344028  0.8698848438007126  1.0000
  C   C7        1.0  0.12014786794665878  0.3591371834728201  0.08669668397959454  1.0000
  C   C8        1.0  0.879852132481384  0.640862816130724  0.9133033159965346  1.0000
  C   C9        1.0  0.2450859513728385  0.4876363057386732  0.14470013425952596  1.0000
  C   C10       1.0  0.7549140479197747  0.5123636938670746  0.8552998657245645  1.0000
  C   C11       1.0  0.3912853148083325  0.49522326759257257  0.24673695913270194  1.0000
  C   C12       1.0  0.60871468491098  0.5047767330579601  0.7532630408467385  1.0000
  C   C13       1.0  0.5231127607601388  0.6253611189243848  0.30685251857010143  1.0000
  C   C14       1.0  0.4768872400946035  0.3746388817239441  0.6931474814013775  1.0000
  C   C15       1.0  0.6638891442676628  0.6275093233678634  0.40360096903954396  1.0000
  C   C16       1.0  0.3361108550249505  0.3724906762378844  0.5963990309445466  1.0000
  C   C17       1.0  0.6815955136249372  0.5017308874209581  0.44898852752196633  1.0000
  C   C18       1.0  0.318404487229805  0.4982691132273709  0.5510114724495125  1.0000
  C   C19       1.0  0.8321144335075256  0.5068668571764514  0.550160276410248  1.0000
  C   C20       1.0  0.1678855657850878  0.49313314242929646  0.44983972357384255  1.0000
  C   C21       1.0  0.9553240230956869  0.6297584668202016  0.6176723754486626  1.0000
  C   C22       1.0  0.04467597775905546  0.37024153382812736  0.3823276245228162  1.0000
  C   C23       1.0  0.10874205725337863  0.6452464064494944  0.7205235482496837  1.0000
  C   C24       1.0  0.8912579420392347  0.3547535931562535  0.2794764517344068  1.0000
  C   C25       1.0  0.22245927675661167  0.7829170697291106  0.7755217545841262  1.0000
  C   C26       1.0  0.7775407236714312  0.2170829298744334  0.2244782453920029  1.0000
  C   C27       1.0  0.3733006823286645  0.8076079847522984  0.8752958624927893  1.0000
  C   C28       1.0  0.6266993180993783  0.19239201485124563  0.12470413748333968  1.0000
  C   C29       1.0  0.41382410093254546  0.6926282647863428  0.9230016009598642  1.0000
  C   C30       1.0  0.5861758999221967  0.30737173586198624  0.07699839901161462  1.0000
  C   C31       1.0  0.30166109157153886  0.5539887036934886  0.8702898797877588  1.0000
  C   C32       1.0  0.6983389092832033  0.44601129695484026  0.12971012018372002  1.0000
  C   C33       1.0  0.1517884971006346  0.5309352010896308  0.771244390230846  1.0000
  C   C34       1.0  0.848211502618678  0.4690647995609019  0.22875560974859432  1.0000
  C   C35       1.0  0.674952611385599  0.8436159183832085  0.07857447003863147  1.0000
  C   C36       1.0  0.3250473879070141  0.15638408122253938  0.921425529945459  1.0000
  C   C37       1.0  0.5563780731493659  0.2423859972386981  0.4399529946339153  1.0000
  C   C38       1.0  0.4436219261432473  0.7576140023670498  0.5600470053501753  1.0000
  N   N1        1.0  0.5518232951938149  0.3761305704799263  0.39352133892602165  1.0000
  N   N2        1.0  0.4481767052342279  0.6238694291236176  0.6064786610501074  1.0000
  O   O1        1.0  0.55818432168759  0.7048119819863911  0.01940799515125917  1.0000
  O   O2        1.0  0.44181567760502316  0.29518801761935665  0.9805920048328313  1.0000
  I   I1        1.0  0.9219814177674011  0.04432699483519435  0.5835263894664672  1.0000
  I   I2        1.0  0.0780185819519115  0.9556730058153385  0.4164736105129732  1.0000
  I   I3        1.0  0.753454438002146  0.1395298164692966  0.7796356585961569  1.0000
  I   I4        1.0  0.24654556171716663  0.8604701841812363  0.22036434138328342  1.0000
