data_image0
_chemical_formula_structural       H26C38O2F8P2I4
_chemical_formula_sum              "H26 C38 O2 F8 P2 I4"
_cell_length_a       9.40692690273184
_cell_length_b       10.6821897278835
_cell_length_c       11.618311458265383
_cell_angle_alpha    111.20777043343355
_cell_angle_beta     110.09452864625172
_cell_angle_gamma    97.66378233233476

_space_group_name_H-M_alt    "P 1"
_space_group_IT_number       1

loop_
  _space_group_symop_operation_xyz
  'x, y, z'

loop_
  _atom_site_type_symbol
  _atom_site_label
  _atom_site_symmetry_multiplicity
  _atom_site_fract_x
  _atom_site_fract_y
  _atom_site_fract_z
  _atom_site_occupancy
  H   H1        1.0  0.08075798612853324  0.9086482500229355  0.4645713517469957  1.0000
  H   H2        1.0  0.919242013913208  0.09135174991024972  0.5354286479621603  1.0000
  H   H3        1.0  0.1367713229257327  0.8946561337043335  0.32940057150763935  1.0000
  H   H4        1.0  0.8632286776231706  0.10534386668893918  0.6705994292209447  1.0000
  H   H5        1.0  0.2833341298447563  0.978384216561085  0.502210006659755  1.0000
  H   H6        1.0  0.716665870196985  0.021615783372100107  0.4977899930494011  1.0000
  H   H7        1.0  0.3944427743984735  0.8927642417117493  0.3364755098053339  1.0000
  H   H8        1.0  0.6055572256432676  0.1072357582214359  0.6635244899038221  1.0000
  H   H9        1.0  0.5963890209033177  0.8434107402841213  0.25045019209842095  1.0000
  H   H10       1.0  0.4036109791384235  0.15658925964906392  0.749549807610735  1.0000
  H   H11       1.0  0.6708302352590423  0.622191188447865  0.22098928488363104  1.0000
  H   H12       1.0  0.3291697637224558  0.3778088114905356  0.77901071483023  1.0000
  H   H13       1.0  0.540957161716131  0.4501769068244757  0.2801062415218049  1.0000
  H   H14       1.0  0.4590428383256104  0.5498230931087096  0.7198937581873511  1.0000
  H   H15       1.0  0.33824285337035487  0.49922908473409566  0.36747015211099965  1.0000
  H   H16       1.0  0.6617571471785485  0.500770915659177  0.6325298486175844  1.0000
  H   H17       1.0  0.017785968652331636  0.66130476875946  0.12727202898206436  1.0000
  H   H18       1.0  0.9822140318965719  0.3386952316338127  0.8727279717465198  1.0000
  H   H19       1.0  0.7676027332075968  0.479527247427135  0.9499999278318096  1.0000
  H   H20       1.0  0.2323972668341445  0.5204727525060502  0.05000007187734623  1.0000
  H   H21       1.0  0.6282399616852087  0.30833779852073373  0.003445859664890137  1.0000
  H   H22       1.0  0.37176003835653254  0.6916622014124515  0.9965541400442658  1.0000
  H   H23       1.0  0.7409849120852229  0.32070696145685956  0.23762146060078815  1.0000
  H   H24       1.0  0.2590150884636805  0.6792930389364131  0.7623785401277959  1.0000
  H   H25       1.0  0.9898314176277783  0.5050952152613261  0.4157253735145666  1.0000
  H   H26       1.0  0.010168582413962955  0.4949047846718593  0.5842746261945894  1.0000
  C   C1        1.0  0.7223978545517393  0.9811068651209021  0.9544049218906341  1.0000
  C   C2        1.0  0.2776021449369209  0.018893135277586046  0.04559507884265508  1.0000
  C   C3        1.0  0.8444734842903739  0.09075921657713806  0.9792969832170731  1.0000
  C   C4        1.0  0.1555265157513672  0.9092407833560472  0.02070301649208291  1.0000
  C   C5        1.0  0.9729714592913826  0.1652666487716719  0.10649140203080296  1.0000
  C   C6        1.0  0.027028540750358553  0.8347333511615133  0.8935085976783531  1.0000
  C   C7        1.0  0.9836555559348037  0.13294303037639824  0.21482657911990888  1.0000
  C   C8        1.0  0.016344444106937483  0.8670569695567869  0.7851734205892471  1.0000
  C   C9        1.0  0.8631719214067762  0.021446541891528826  0.18965586364466913  1.0000
  C   C10       1.0  0.13682807863496518  0.9785534580416565  0.8103441360644869  1.0000
  C   C11       1.0  0.7362772206168837  0.9469612673582255  0.06207513201151424  1.0000
  C   C12       1.0  0.26372277942485756  0.053038732574959745  0.9379248676976418  1.0000
  C   C13       1.0  0.173753152390717  0.8931496112024342  0.4289945394798674  1.0000
  C   C14       1.0  0.8262468481581863  0.10685038919083852  0.5710054612487168  1.0000
  C   C15       1.0  0.35213862767421356  0.6988866496082087  0.35751918910726765  1.0000
  C   C16       1.0  0.6478613723675276  0.3011133503249765  0.6424808106018883  1.0000
  C   C17       1.0  0.42609433957276943  0.7958292000457332  0.3252070224088456  1.0000
  C   C18       1.0  0.5739056599158908  0.20417080035275487  0.6747929783244436  1.0000
  C   C19       1.0  0.540615551100292  0.7682567693497501  0.27660626280343537  1.0000
  C   C20       1.0  0.4593844494486114  0.2317432310435225  0.7233937379251487  1.0000
  C   C21       1.0  0.5824767039402594  0.644303068185268  0.260252433614733  1.0000
  C   C22       1.0  0.41752329610148164  0.35569693174791717  0.7397475660944229  1.0000
  C   C23       1.0  0.5096917529680038  0.5475636353767132  0.29342937523904317  1.0000
  C   C24       1.0  0.4903082470737373  0.4524363645564721  0.7065706244701129  1.0000
  C   C25       1.0  0.39514985969193195  0.5747628567122608  0.3420609834284191  1.0000
  C   C26       1.0  0.6048501408569714  0.4252371436810118  0.657939017300165  1.0000
  C   C27       1.0  0.0189542725238469  0.5953941754253922  0.28423510811079156  1.0000
  C   C28       1.0  0.9810457275178944  0.404605824507793  0.7157648915983644  1.0000
  C   C29       1.0  0.9567962586558233  0.5882497582422662  0.15268668179057077  1.0000
  C   C30       1.0  0.043203740325674804  0.4117502416961344  0.8473133179232905  1.0000
  C   C31       1.0  0.816132839441876  0.48504756301080854  0.05210812099510251  1.0000
  C   C32       1.0  0.18386716004678433  0.5149524373876795  0.9478918797381867  1.0000
  C   C33       1.0  0.7379173539626964  0.38872572732674066  0.08219352310900883  1.0000
  C   C34       1.0  0.2620826460790449  0.6112742726064446  0.9178064766001474  1.0000
  C   C35       1.0  0.8000590759430446  0.3953612516099916  0.2127915863552618  1.0000
  C   C36       1.0  0.19994092303845346  0.6046387483284089  0.7872084133585993  1.0000
  C   C37       1.0  0.9400546548474764  0.4987980477188295  0.3136815920092021  1.0000
  C   C38       1.0  0.05994534413402157  0.501201952219571  0.6863184077046588  1.0000
  O   O1        1.0  0.23956840430600848  0.7138951876902909  0.5513132159877849  1.0000
  O   O2        1.0  0.7604315957357327  0.2861048122428942  0.44868678372137105  1.0000
  F   F1        1.0  0.8401766558470948  0.12863068191751417  0.8786860657994813  1.0000
  F   F2        1.0  0.1598233441946464  0.8713693180156711  0.12131393390967486  1.0000
  F   F3        1.0  0.08662288939871567  0.2708627031880356  0.12337085222213857  1.0000
  F   F4        1.0  0.9133771111501876  0.7291372972052371  0.8766291485064456  1.0000
  F   F5        1.0  0.8671193055014957  0.9831904971281212  0.28966977047701786  1.0000
  F   F6        1.0  0.13288069504740752  0.016809503265151442  0.7103302302515663  1.0000
  F   F7        1.0  0.6241782825743026  0.8390798355809904  0.04437349063552465  1.0000
  F   F8        1.0  0.3758217174674387  0.16092016435219483  0.9556265090736314  1.0000
  P   P1        1.0  0.20084419568449616  0.726459405939727  0.4189806720524999  1.0000
  P   P2        1.0  0.7991558032970019  0.2735405939986734  0.5810193276613611  1.0000
  I   I1        1.0  0.5190076005373814  0.8706207769622418  0.7678356576388116  1.0000
  I   I2        1.0  0.4809924000115221  0.1293792234310309  0.23216434308977268  1.0000
  I   I3        1.0  0.1680272549257956  0.24904359851404217  0.4091030106381563  1.0000
  I   I4        1.0  0.8319727440557025  0.7509564014243584  0.5908969890757048  1.0000
