data_image0
_chemical_formula_structural       H26C32O2F4P2I2
_chemical_formula_sum              "H26 C32 O2 F4 P2 I2"
_cell_length_a       6.01475122662349
_cell_length_b       11.408911097410243
_cell_length_c       12.557938401000403
_cell_angle_alpha    113.11543850265403
_cell_angle_beta     100.29648338203079
_cell_angle_gamma    97.9276797327639

_space_group_name_H-M_alt    "P 1"
_space_group_IT_number       1

loop_
  _space_group_symop_operation_xyz
  'x, y, z'

loop_
  _atom_site_type_symbol
  _atom_site_label
  _atom_site_symmetry_multiplicity
  _atom_site_fract_x
  _atom_site_fract_y
  _atom_site_fract_z
  _atom_site_occupancy
  H   H1        1.0  0.7991851786041587  0.7821355466459483  0.5708246100407299  1.0000
  H   H2        1.0  0.2008148200736943  0.21786445313452044  0.42917539014357636  1.0000
  H   H3        1.0  0.8794651821378743  0.9981725350820054  0.7476276226874409  1.0000
  H   H4        1.0  0.12053481775357892  0.001827464280595465  0.25237237659885087  1.0000
  H   H5        1.0  0.5703304270506591  0.12085928702174843  0.7812415572633871  1.0000
  H   H6        1.0  0.42966957351686336  0.8791407136448722  0.21875844291892477  1.0000
  H   H7        1.0  0.17850016133034338  0.029566564226368348  0.6386998791594479  1.0000
  H   H8        1.0  0.8214998375752615  0.9704334364392686  0.3613001210252974  1.0000
  H   H9        1.0  0.09585117424955403  0.8151885953992147  0.46466256792524213  1.0000
  H   H10       1.0  0.904148824656051  0.18481140526642229  0.5353374322595031  1.0000
  H   H11       1.0  0.9412161622945877  0.6810385550462891  0.28518029042875687  1.0000
  H   H12       1.0  0.05878383827293452  0.31896144562033135  0.7148197097535548  1.0000
  H   H13       1.0  0.8088419058195634  0.7114575360473111  0.10196790661135607  1.0000
  H   H14       1.0  0.19115809285828966  0.2885424637331575  0.8980320935729501  1.0000
  H   H15       1.0  0.044804809309851236  0.6770458816755847  0.9539782406578812  1.0000
  H   H16       1.0  0.955195191029919  0.3229541181058672  0.046021759523991373  1.0000
  H   H17       1.0  0.42112563377612283  0.614813204207517  0.9913423676484858  1.0000
  H   H18       1.0  0.5788743665636477  0.38518679557393504  0.008657632533386923  1.0000
  H   H19       1.0  0.565126415449667  0.5925806204758725  0.1798169240331529  1.0000
  H   H20       1.0  0.4348735851178553  0.40741938019074797  0.8201830761491589  1.0000
  H   H21       1.0  0.2292938224808356  0.5123084755065225  0.48709265530013185  1.0000
  H   H22       1.0  0.7707061780866866  0.48769152516009784  0.5129073448821798  1.0000
  H   H23       1.0  0.10909065065734912  0.4247931892268453  0.3283827592391375  1.0000
  H   H24       1.0  0.8909093496824213  0.5752068105546067  0.6716172409427351  1.0000
  H   H25       1.0  0.009965429665564947  0.5656386880751877  0.4114441982146023  1.0000
  H   H26       1.0  0.9900345706742054  0.4343613117062644  0.5885558019672703  1.0000
  C   C1        1.0  0.5120996127168267  0.1291481736507716  0.08492146447841356  1.0000
  C   C2        1.0  0.4879003861887782  0.8708518270148655  0.9150785357063317  1.0000
  C   C3        1.0  0.6982203780618382  0.06946373330797873  0.0913880785580044  1.0000
  C   C4        1.0  0.3017796225056841  0.9305362673586418  0.9086119216243073  1.0000
  C   C5        1.0  0.6858571991654551  0.9428112147117124  0.008469326912072677  1.0000
  C   C6        1.0  0.3141428011743152  0.057188785069739484  0.9915306732697999  1.0000
  C   C7        1.0  0.44361159810135486  0.7849609129483234  0.5058055933895687  1.0000
  C   C8        1.0  0.5563884005764982  0.21503908683214518  0.49419440679473753  1.0000
  C   C9        1.0  0.6647418482538663  0.8374283145105801  0.5855258293236097  1.0000
  C   C10       1.0  0.335258151637587  0.16257168485202078  0.41447416996268205  1.0000
  C   C11       1.0  0.7093112996994583  0.9583249202818714  0.6842899055631013  1.0000
  C   C12       1.0  0.29068870064031216  0.04167507949958067  0.31571009461877136  1.0000
  C   C13       1.0  0.5348750627452169  0.027136793110944118  0.7036405887154925  1.0000
  C   C14       1.0  0.4651249375945535  0.9728632066705079  0.2963594114663801  1.0000
  C   C15       1.0  0.31493211570278856  0.9757382151784704  0.623876068481757  1.0000
  C   C16       1.0  0.6850678846369818  0.02426178460298175  0.3761239317001156  1.0000
  C   C17       1.0  0.26894655604401324  0.8548287207303555  0.5254902409837132  1.0000
  C   C18       1.0  0.7310534445235091  0.14517127993626486  0.4745097591985985  1.0000
  C   C19       1.0  0.2668285688643693  0.6380941802184245  0.24638772066042888  1.0000
  C   C20       1.0  0.7331714314754011  0.3619058195630275  0.7536122795214437  1.0000
  C   C21       1.0  0.05133345482132232  0.6696035922027159  0.22315032446775473  1.0000
  C   C22       1.0  0.9486665450701309  0.3303964071598849  0.776849674818537  1.0000
  C   C23       1.0  0.9744572904007744  0.6852202981566424  0.11900684147801616  1.0000
  C   C24       1.0  0.025542710166747765  0.31477970250997794  0.8809931587042954  1.0000
  C   C25       1.0  0.10772029537130769  0.6664729752681157  0.03584585427561292  1.0000
  C   C26       1.0  0.8922797049684628  0.3335270245133363  0.9641541459062598  1.0000
  C   C27       1.0  0.319021537336408  0.6317743240610504  0.05723063208190916  1.0000
  C   C28       1.0  0.6809784632311142  0.36822567660557  0.9427693681004025  1.0000
  C   C29       1.0  0.39945055941436547  0.618760649993004  0.16239190252257316  1.0000
  C   C30       1.0  0.6005494394912394  0.38123935067263304  0.837608097662172  1.0000
  C   C31       1.0  0.16158187761643716  0.5220289652530753  0.40446267561697896  1.0000
  C   C32       1.0  0.8384181222750161  0.47797103410952546  0.5955373236693129  1.0000
  O   O1        1.0  0.6079256822266341  0.5741946983498214  0.37663835512934807  1.0000
  O   O2        1.0  0.39207431811313637  0.4258053014316306  0.6233616450525247  1.0000
  F   F1        1.0  0.895907478451669  0.1350810773915779  0.17982259113379928  1.0000
  F   F2        1.0  0.10409251977786708  0.8649189219700395  0.8201774081549262  1.0000
  F   F3        1.0  0.8720384459852005  0.8897827648669447  0.020608292629565154  1.0000
  F   F4        1.0  0.12796155269265252  0.11021723491352382  0.9793917075547411  1.0000
  P   P1        1.0  0.38755686508649684  0.6243756110426872  0.3828574722587137  1.0000
  P   P2        1.0  0.6124431352532735  0.3756243887387648  0.6171425279231589  1.0000
  I   I1        1.0  0.5364228460918101  0.31996948694843014  0.2126120145178271  1.0000
  I   I2        1.0  0.46357715424796014  0.6800305128330217  0.7873879856640454  1.0000
