data_image0
_chemical_formula_structural       H52C64O4F8P4I4
_chemical_formula_sum              "H52 C64 O4 F8 P4 I4"
_cell_length_a       11.38868480067201
_cell_length_b       5.847031360848398
_cell_length_c       23.595890721717563
_cell_angle_alpha    90.0
_cell_angle_beta     90.82432965482006
_cell_angle_gamma    90.0

_space_group_name_H-M_alt    "P 1"
_space_group_IT_number       1

loop_
  _space_group_symop_operation_xyz
  'x, y, z'

loop_
  _atom_site_type_symbol
  _atom_site_label
  _atom_site_symmetry_multiplicity
  _atom_site_fract_x
  _atom_site_fract_y
  _atom_site_fract_z
  _atom_site_occupancy
  H   H1        1.0  0.5631405477572846  0.6318498998890165  0.3755215746173951  1.0000
  H   H2        1.0  0.9368594525662534  0.13184989996156593  0.12447842555968176  1.0000
  H   H3        1.0  0.43685945253240305  0.36815009996588466  0.6244784254409893  1.0000
  H   H4        1.0  0.06314054772343428  0.8681500998933352  0.8755215744987026  1.0000
  H   H5        1.0  0.41660291250372505  0.31296588081485516  0.3709348540319787  1.0000
  H   H6        1.0  0.08339708719655088  0.8129658807423057  0.1290651457849084  1.0000
  H   H7        1.0  0.5833970877859627  0.6870341190400461  0.6290651460264057  1.0000
  H   H8        1.0  0.9166029122150511  0.1870341191125954  0.8709348542727117  1.0000
  H   H9        1.0  0.40185486887998123  0.7179965098375757  0.2702233515352857  1.0000
  H   H10       1.0  0.09814513169838056  0.21799650991012512  0.22977664828236596  1.0000
  H   H11       1.0  0.5981451314097065  0.28200349001732544  0.729776648523099  1.0000
  H   H12       1.0  0.9018548685802573  0.7820034899447761  0.7702233513521728  1.0000
  H   H13       1.0  0.257348313993067  0.022447428771949607  0.11818300118270998  1.0000
  H   H14       1.0  0.24265168659634476  0.5224474286994002  0.38181699905878747  1.0000
  H   H15       1.0  0.7426516862966206  0.9775525710829516  0.8818169988756747  1.0000
  H   H16       1.0  0.757348313693343  0.477552571155501  0.618183000999597  1.0000
  H   H17       1.0  0.31746186363630147  0.8429708643267523  0.5024852837689837  1.0000
  H   H18       1.0  0.18253813574144995  0.34297086439930163  0.9975147161699437  1.0000
  H   H19       1.0  0.6825381357753004  0.15702913552814893  0.49751471628863614  1.0000
  H   H20       1.0  0.817461863670152  0.6570291354555995  0.0024852838876762394  1.0000
  H   H21       1.0  0.5248786930258545  0.3774449996587288  0.2144124343293368  1.0000
  H   H22       1.0  0.9751213072866336  0.8774449995861795  0.2855875654238944  1.0000
  H   H23       1.0  0.47512130725278323  0.6225550001961724  0.7855875653052019  1.0000
  H   H24       1.0  0.024878693003054127  0.12255500026872176  0.7144124346344902  1.0000
  H   H25       1.0  0.4486909599050428  0.5476721198114723  0.46123232116570506  1.0000
  H   H26       1.0  0.05130903979523313  0.04767211988402181  0.038767678651182  1.0000
  H   H27       1.0  0.551309039506559  0.4523278800434288  0.5387676788919149  1.0000
  H   H28       1.0  0.9486909604944544  0.9523278799708793  0.9612323214072025  1.0000
  H   H29       1.0  0.7470538203595036  0.8335437590833827  0.3285161400431649  1.0000
  H   H30       1.0  0.7529461790859489  0.3335437574456625  0.1714838601331475  1.0000
  H   H31       1.0  0.2529461790520984  0.16645624248178806  0.671483860014455  1.0000
  H   H32       1.0  0.2470538203256531  0.6664562424092386  0.8285161399244726  1.0000
  H   H33       1.0  0.7310754042313393  0.8785312243057058  0.2537193314709719  1.0000
  H   H34       1.0  0.7689245960921988  0.3785312243782553  0.24628066870610504  1.0000
  H   H35       1.0  0.2689245960583484  0.12146877554919532  0.7462806685874127  1.0000
  H   H36       1.0  0.23107540419748893  0.6214687754766459  0.7537193313522794  1.0000
  H   H37       1.0  0.6412739505739625  0.6727977322545436  0.2887425197744477  1.0000
  H   H38       1.0  0.8587260488604398  0.17279773232709306  0.2112574799780189  1.0000
  H   H39       1.0  0.3587260488376393  0.32720226760035753  0.7112574802831721  1.0000
  H   H40       1.0  0.14127395055116207  0.8272022675278081  0.788742520079601  1.0000
  H   H41       1.0  0.2652048023526084  0.6994183419954524  0.1877431267176808  1.0000
  H   H42       1.0  0.23479519735871748  0.19941834206800182  0.3122568735230521  1.0000
  H   H43       1.0  0.7347951979370794  0.30058165785944874  0.8122568733407037  1.0000
  H   H44       1.0  0.7652048020528843  0.8005816577868993  0.6877431265345679  1.0000
  H   H45       1.0  0.3861488332798976  0.36024217932266595  0.13161938472888185  1.0000
  H   H46       1.0  0.11385116643142833  0.8602421809603861  0.36838061551185103  1.0000
  H   H47       1.0  0.6138511661317043  0.6397578205322352  0.868380615328738  1.0000
  H   H48       1.0  0.8861488338582593  0.13975782060478462  0.6316193845465334  1.0000
  H   H49       1.0  0.3002331904655295  0.22404490914341885  0.4564979888229643  1.0000
  H   H50       1.0  0.1997668092457964  0.7240449090708695  0.043502011417768605  1.0000
  H   H51       1.0  0.6997668098241582  0.7759550907114823  0.5435020112354203  1.0000
  H   H52       1.0  0.8002331901658054  0.27595509078403174  0.9564979886398514  1.0000
  C   C1        1.0  0.9115310932661939  0.6475337288853936  0.48369687632462943  1.0000
  C   C2        1.0  0.5884689061682083  0.147533728957943  0.01630312342783715  1.0000
  C   C3        1.0  0.0884689061454079  0.35246627096950756  0.5163031237329905  1.0000
  C   C4        1.0  0.4115310932433935  0.8524662708969583  0.9836968766297828  1.0000
  C   C5        1.0  0.9236175630896032  0.4429776206338286  0.4538835947926248  1.0000
  C   C6        1.0  0.576382437222885  0.9429776205612792  0.04611640496060639  1.0000
  C   C7        1.0  0.07638243720008447  0.5570223792210726  0.5461164052657598  1.0000
  C   C8        1.0  0.42361756305575277  0.05702237929362198  0.9538835946739322  1.0000
  C   C9        1.0  0.9855374968260343  0.7027194787277171  0.5292282528181169  1.0000
  C   C10       1.0  0.5144625031639294  0.2027194788002665  0.9707717470571547  1.0000
  C   C11       1.0  0.014462503463653449  0.2972805211271841  0.47077174724026755  1.0000
  C   C12       1.0  0.4855374971147084  0.7972805210546346  0.029228252577384033  1.0000
  C   C13       1.0  0.49732381503718276  0.9789824454044717  0.3675679449984693  1.0000
  C   C14       1.0  0.00267618467414307  0.4789824454770211  0.13243205524226362  1.0000
  C   C15       1.0  0.5026761843744191  0.021017554450429483  0.6324320550591507  1.0000
  C   C16       1.0  0.9973238156155447  0.52101755437788  0.867567944816121  1.0000
  C   C17       1.0  0.5061264278134966  0.7630583615259801  0.3930484372835206  1.0000
  C   C18       1.0  0.9938735724989917  0.2630583615985295  0.10695156246971062  1.0000
  C   C19       1.0  0.4938735724651412  0.23694163832892104  0.6069515623510182  1.0000
  C   C20       1.0  0.00612642779069617  0.7369416382563716  0.8930484375886739  1.0000
  C   C21       1.0  0.4227431149524705  0.1446282203414243  0.39069242929508186  1.0000
  C   C22       1.0  0.07725688562589127  0.6446282202688749  0.10930757052256977  1.0000
  C   C23       1.0  0.5772568853372172  0.8553717795134769  0.6093075707633027  1.0000
  C   C24       1.0  0.9227431146527464  0.3553717795860262  0.890692429111969  1.0000
  C   C25       1.0  0.39939033362881027  0.8578106821154856  0.2395781999875515  1.0000
  C   C26       1.0  0.1006096660714656  0.3578106821880351  0.2604217998293356  1.0000
  C   C27       1.0  0.6006096666608773  0.14218931773941554  0.760421800070833  1.0000
  C   C28       1.0  0.8993903333290862  0.642189317666866  0.7395781998044386  1.0000
  C   C29       1.0  0.47300979817678646  0.04825398438756816  0.24690614828737018  1.0000
  C   C30       1.0  0.02699020153453942  0.5482539843150187  0.25309385195336276  1.0000
  C   C31       1.0  0.5269902012348153  0.9517460154673331  0.7530938517702498  1.0000
  C   C32       1.0  0.9730097987551483  0.4517460155398824  0.7469061481050219  1.0000
  C   C33       1.0  0.31768682454516184  0.028649292206924987  0.154454501485489  1.0000
  C   C34       1.0  0.18231317604424996  0.5286492921343755  0.34554549875600843  1.0000
  C   C35       1.0  0.6823131757445259  0.9713507076479763  0.8455454985728956  1.0000
  C   C36       1.0  0.8176868242454377  0.4713507077205256  0.6544545013023761  1.0000
  C   C37       1.0  0.3670144076806408  0.8802418667467529  0.46433788723433694  1.0000
  C   C38       1.0  0.13298559201963514  0.3802418668193023  0.03566211258255017  1.0000
  C   C39       1.0  0.6329855917199111  0.11975813310814833  0.5356621123994373  1.0000
  C   C40       1.0  0.8670144082700525  0.6197581330355989  0.9643378874758343  1.0000
  C   C41       1.0  0.4677823175358374  0.22969473175617233  0.20812206248282963  1.0000
  C   C42       1.0  0.03221768304252444  0.729694731683623  0.291877937334822  1.0000
  C   C43       1.0  0.5322176827428003  0.7703052680987288  0.7918779371517092  1.0000
  C   C44       1.0  0.9677823172471633  0.27030526817127826  0.7081220627235625  1.0000
  C   C45       1.0  0.4410901849044474  0.7153570319474211  0.4414193643159402  1.0000
  C   C46       1.0  0.058909815673914415  0.2153570320199705  0.058580635501711456  1.0000
  C   C47       1.0  0.5589098153852403  0.28464296790748006  0.5585806357424443  1.0000
  C   C48       1.0  0.9410901846157732  0.7846429678349307  0.9414193645566731  1.0000
  C   C49       1.0  0.6839945329611806  0.8405720436031423  0.2928859126413987  1.0000
  C   C50       1.0  0.8160054673623575  0.34057204367569177  0.2071140875356783  1.0000
  C   C51       1.0  0.3160054673285071  0.1594279562517588  0.7071140874169859  1.0000
  C   C52       1.0  0.18399453292733023  0.6594279561792094  0.7928859125227061  1.0000
  C   C53       1.0  0.32205097541669025  0.8479497464642641  0.19329006874850166  1.0000
  C   C54       1.0  0.17794902517272151  0.3479497465368136  0.30670993149299575  1.0000
  C   C55       1.0  0.6779490248729975  0.15205025339063702  0.8067099313098828  1.0000
  C   C56       1.0  0.8220509751169661  0.6520502533180876  0.6932900685653889  1.0000
  C   C57       1.0  0.3899440039049038  0.2196443444102982  0.16191693023196727  1.0000
  C   C58       1.0  0.11005599580642203  0.7196443443377487  0.33808307000876564  1.0000
  C   C59       1.0  0.6100559963847839  0.780355655444603  0.8380830698264173  1.0000
  C   C60       1.0  0.8899440036051798  0.28035565551715236  0.6619169300488543  1.0000
  C   C61       1.0  0.35780136916170124  0.09512034495387077  0.4386700258257491  1.0000
  C   C62       1.0  0.14219863054962464  0.5951203448813214  0.0613299744149838  1.0000
  C   C63       1.0  0.6421986311279865  0.9048796549010304  0.5613299742326354  1.0000
  C   C64       1.0  0.8578013688619772  0.4048796549735798  0.9386700256426361  1.0000
  O   O1        1.0  0.6287370203722006  0.29868864766044173  0.31052171373933984  1.0000
  O   O2        1.0  0.8712629799402875  0.7986886475878924  0.18947828601389138  1.0000
  O   O3        1.0  0.3712629799064372  0.7013113521944595  0.689478285895199  1.0000
  O   O4        1.0  0.1287370203494001  0.20131135226700886  0.8105217140444931  1.0000
  F   F1        1.0  0.8260865451488547  0.7981394441029406  0.4682784008303876  1.0000
  F   F2        1.0  0.6739134542965975  0.29813944417549  0.031721599345924875  1.0000
  F   F3        1.0  0.1739134542627472  0.2018605557519606  0.5317215992272325  1.0000
  F   F4        1.0  0.32608654511500423  0.7018605556794112  0.968278400711695  1.0000
  F   F5        1.0  0.9677467555324427  0.9027472189295923  0.5570371774376006  1.0000
  F   F6        1.0  0.5322532444685709  0.40274721900214167  0.9429628228615167  1.0000
  F   F7        1.0  0.03225324475724499  0.09725278092530891  0.4429628226207839  1.0000
  F   F8        1.0  0.4677467549430309  0.5972527808527595  0.057037177196103225  1.0000
  P   P1        1.0  0.5776023552071768  0.05984317654647045  0.3051890027053316  1.0000
  P   P2        1.0  0.9223976442272254  0.559843176473921  0.19481099704713503  1.0000
  P   P3        1.0  0.42239764420442505  0.9401568233084306  0.6948109973522885  1.0000
  P   P4        1.0  0.07760235517332648  0.4401568233809801  0.8051890025866392  1.0000
  I   I1        1.0  0.8030276687875505  0.3600037968146923  0.38873541501390474  1.0000
  I   I2        1.0  0.6969723315359876  0.8600037984524125  0.11126458516317221  1.0000
  I   I3        1.0  0.1969723315021372  0.639996203040209  0.6112645850444798  1.0000
  I   I4        1.0  0.3030276687537001  0.13999620311275832  0.8887354148952124  1.0000
