data_image0
_chemical_formula_structural       H60C56N8O16S4
_chemical_formula_sum              "H60 C56 N8 O16 S4"
_cell_length_a       8.839179604327553
_cell_length_b       4.9400974001275975
_cell_length_c       31.309127720390734
_cell_angle_alpha    90.0
_cell_angle_beta     96.8048706468707
_cell_angle_gamma    90.0

_space_group_name_H-M_alt    "P 1"
_space_group_IT_number       1

loop_
  _space_group_symop_operation_xyz
  'x, y, z'

loop_
  _atom_site_type_symbol
  _atom_site_label
  _atom_site_symmetry_multiplicity
  _atom_site_fract_x
  _atom_site_fract_y
  _atom_site_fract_z
  _atom_site_occupancy
  H   H1        1.0  0.6453244883694057  0.9670169741747624  0.06033930722219433  1.0000
  H   H2        1.0  0.35467551153483184  0.46701697418767685  0.43966069271816827  1.0000
  H   H3        1.0  0.35467551118048357  0.03298302579940862  0.9396606927465139  1.0000
  H   H4        1.0  0.6453244880150575  0.5329830257864941  0.56033930725054  1.0000
  H   H5        1.0  0.17537357263472514  0.9595765237093423  0.1195154536358598  1.0000
  H   H6        1.0  0.8246264272822376  0.4595765237222568  0.38048454662430414  1.0000
  H   H7        1.0  0.8246264280544461  0.04042347626482872  0.8804845463673918  1.0000
  H   H8        1.0  0.17537357226765177  0.5404234762519142  0.6195154533444039  1.0000
  H   H9        1.0  0.2915764695012345  0.5661933487238036  0.35266936375778296  1.0000
  H   H10       1.0  0.708423530403003  0.066193348736718  0.14733063618257963  1.0000
  H   H11       1.0  0.7084235300486547  0.4338066512503675  0.6473306362109252  1.0000
  H   H12       1.0  0.2915764691468863  0.933806651237453  0.8526693637861286  1.0000
  H   H13       1.0  0.3144067583693287  0.9214488139206375  0.34857383896866695  1.0000
  H   H14       1.0  0.6855932415349089  0.42144881393355205  0.15142616097169564  1.0000
  H   H15       1.0  0.6855932423198424  0.07855118605353349  0.6514261610345848  1.0000
  H   H16       1.0  0.3144067580149804  0.578551186040619  0.8485738389970126  1.0000
  H   H17       1.0  0.46906271028724705  0.6979774771062084  0.34218659564604437  1.0000
  H   H18       1.0  0.5309372896297155  0.19797747711912292  0.15781340461411958  1.0000
  H   H19       1.0  0.5309372904146493  0.3020225228679626  0.6578134046770087  1.0000
  H   H20       1.0  0.4690627099201736  0.8020225228550482  0.8421865953545886  1.0000
  H   H21       1.0  0.4370850209833206  0.3626212673364963  0.2775598101073303  1.0000
  H   H22       1.0  0.5629149789336421  0.8626212673235818  0.2224401901528337  1.0000
  H   H23       1.0  0.5629149785665686  0.6373787326376747  0.7224401898613779  1.0000
  H   H24       1.0  0.4370850217555291  0.1373787326505892  0.7775598098504181  1.0000
  H   H25       1.0  0.3294751925125761  0.29746429897557164  0.20156008226103275  1.0000
  H   H26       1.0  0.6705248073916613  0.7974642989626572  0.29843991767932987  1.0000
  H   H27       1.0  0.6705248070373132  0.7025357009985993  0.7984399177076755  1.0000
  H   H28       1.0  0.3294751921582279  0.20253570101151386  0.7015600822893783  1.0000
  H   H29       1.0  0.03364897288822629  0.9837410128542157  0.21044574419698428  1.0000
  H   H30       1.0  0.966351027016011  0.4837410128671301  0.2895542557433783  1.0000
  H   H31       1.0  0.9663510278009448  0.016258987119955447  0.7895542558062675  1.0000
  H   H32       1.0  0.03364897253387805  0.516258987107041  0.7104457442253298  1.0000
  H   H33       1.0  0.14012654078452524  0.044696398090105845  0.2870959872789729  1.0000
  H   H34       1.0  0.8598734591324373  0.5446963980771914  0.2129040129811911  1.0000
  H   H35       1.0  0.8598734599173711  0.9553036039083169  0.7129040130440802  1.0000
  H   H36       1.0  0.1401265404174519  0.4553036018969797  0.7870959869875171  1.0000
  H   H37       1.0  0.35624271291266835  0.4683851698835402  0.10344139723251031  1.0000
  H   H38       1.0  0.6437572869915691  0.9683851698706257  0.39655860270785226  1.0000
  H   H39       1.0  0.6437572877765028  0.5316148300906309  0.8965586027707413  1.0000
  H   H40       1.0  0.35624271255832013  0.031614830103545336  0.6034413972608559  1.0000
  H   H41       1.0  0.4177402622989031  0.6913567776845422  0.1465864590768363  1.0000
  H   H42       1.0  0.5822597376180595  0.1913567776974566  0.35341354118332774  1.0000
  H   H43       1.0  0.5822597372509861  0.3086432222896289  0.8534135408918718  1.0000
  H   H44       1.0  0.4177402619318297  0.8086432222767145  0.6465864587853805  1.0000
  H   H45       1.0  0.9094002297826758  0.9134840296637555  0.08282497134467506  1.0000
  H   H46       1.0  0.09059977012156184  0.41348402967667003  0.4171750285956875  1.0000
  H   H47       1.0  0.0905997697672136  0.0865159703104155  0.917175028624033  1.0000
  H   H48       1.0  0.9094002305676092  0.586515970297501  0.5828249714075641  1.0000
  H   H49       1.0  0.10861247123663224  0.1766767857608347  0.05124956414742784  1.0000
  H   H50       1.0  0.8913875286676052  0.6766767857479202  0.4487504357929347  1.0000
  H   H51       1.0  0.891387528313257  0.8233232142133363  0.9487504358212804  1.0000
  H   H52       1.0  0.1086124720215659  0.3233232142262509  0.551249564210317  1.0000
  H   H53       1.0  0.7417515215357162  0.6112116412769535  0.9752186859233654  1.0000
  H   H54       1.0  0.2582484776598248  0.11121164128986803  0.5247813140736883  1.0000
  H   H55       1.0  0.25824847801417294  0.3887883586972175  0.024781314045342773  1.0000
  H   H56       1.0  0.7417515218900645  0.888788358684303  0.47521868589501987  1.0000
  H   H57       1.0  0.5606429078349778  0.3174275025345648  0.009465451931433288  1.0000
  H   H58       1.0  0.43935709206925955  0.8174275025216503  0.4905345480089293  1.0000
  H   H59       1.0  0.43935709171491133  0.6825724974396062  0.9905345480372748  1.0000
  H   H60       1.0  0.5606429086199115  0.18257249745252072  0.5094654519943225  1.0000
  C   C1        1.0  0.3454096330979484  0.7266498267639989  0.3352563951581725  1.0000
  C   C2        1.0  0.6545903668062891  0.22664982677691337  0.1647436047821901  1.0000
  C   C3        1.0  0.6545903664519408  0.2733501732101722  0.6647436048105356  1.0000
  C   C4        1.0  0.3454096327436002  0.7733501731972577  0.8352563951865182  1.0000
  C   C5        1.0  0.2932679799486601  0.7050932113018727  0.28804257247993087  1.0000
  C   C6        1.0  0.7067320199683026  0.20509321131478714  0.21195742778023313  1.0000
  C   C7        1.0  0.7067320207405111  0.29490678867229836  0.7119574275233207  1.0000
  C   C8        1.0  0.29326797959431183  0.7949067886593838  0.7880425725082765  1.0000
  C   C9        1.0  0.34921641330294806  0.5005921583522069  0.26304463251732935  1.0000
  C   C10       1.0  0.6507835877405713  0.0005921583651213925  0.23695536745757675  1.0000
  C   C11       1.0  0.6507835873862231  0.4994078416219641  0.7369553674859224  1.0000
  C   C12       1.0  0.3492164129485999  0.9994078416090496  0.7630446325456749  1.0000
  C   C13       1.0  0.29056576959267844  0.46415403265951294  0.22017336729261328  1.0000
  C   C14       1.0  0.709434230311559  0.9641540326465986  0.2798266326477493  1.0000
  C   C15       1.0  0.7094342310964927  0.5358459673146581  0.7798266327106383  1.0000
  C   C16       1.0  0.29056576923833016  0.03584596732757256  0.7201733673209588  1.0000
  C   C17       1.0  0.17531413614199848  0.6366143489233167  0.20170809057824116  1.0000
  C   C18       1.0  0.8246858637622391  0.13661434893623117  0.2982919093621214  1.0000
  C   C19       1.0  0.8246858634078907  0.36338565105085435  0.7982919093904671  1.0000
  C   C20       1.0  0.17531413578765023  0.8633856530621915  0.7017080906065868  1.0000
  C   C21       1.0  0.12202562336853377  0.8489403508302644  0.22539377427214746  1.0000
  C   C22       1.0  0.8779743765357036  0.3489403508431789  0.2746062256682151  1.0000
  C   C23       1.0  0.8779743761813555  0.15105964914390657  0.7746062256965607  1.0000
  C   C24       1.0  0.12202562415346743  0.6510596491309921  0.7253937743350366  1.0000
  C   C25       1.0  0.18160619396159455  0.8813186658804635  0.268268484424495  1.0000
  C   C26       1.0  0.8183938059426429  0.3813186658933779  0.23173151551586754  1.0000
  C   C27       1.0  0.8183938067275766  0.11868133409370767  0.7317315155787567  1.0000
  C   C28       1.0  0.18160619360724634  0.6186813340807932  0.7682684844528406  1.0000
  C   C29       1.0  0.35004031902705335  0.6781291660187656  0.1145831902249998  1.0000
  C   C30       1.0  0.6499596808771841  0.1781291660316801  0.38541680971536274  1.0000
  C   C31       1.0  0.6499596805228359  0.32187083395540544  0.8854168097437084  1.0000
  C   C32       1.0  0.35004031981198697  0.8218708339424909  0.6145831902878889  1.0000
  C   C33       1.0  0.4267784844312804  0.8612947408466279  0.08439370917757638  1.0000
  C   C34       1.0  0.5732215154729571  0.3612947408595425  0.41560629076278616  1.0000
  C   C35       1.0  0.5732215162578908  0.13870525912754303  0.9156062908256754  1.0000
  C   C36       1.0  0.42677848407693214  0.6387052591146285  0.584393709205922  1.0000
  C   C37       1.0  0.8804438785120603  0.06847857291057911  0.05846263835701272  1.0000
  C   C38       1.0  0.11955612139217722  0.5684785728976647  0.44153736158334983  1.0000
  C   C39       1.0  0.119556121037829  0.9315214270635919  0.9415373616116954  1.0000
  C   C40       1.0  0.880443878157712  0.43152142707650637  0.5584626383853584  1.0000
  C   C41       1.0  0.9891948256226294  0.21895186721866297  0.04065247868168824  1.0000
  C   C42       1.0  0.010805174294333284  0.7189518672057484  0.45934752157847575  1.0000
  C   C43       1.0  0.01080517393998505  0.7810481327555081  0.9593475216068214  1.0000
  C   C44       1.0  0.989194825255556  0.28104813276842255  0.5406524783902323  1.0000
  C   C45       1.0  0.9431975716047407  0.4187260336094935  0.009909142989650021  1.0000
  C   C46       1.0  0.05680242829949687  0.9187260335965791  0.4900908569507126  1.0000
  C   C47       1.0  0.05680242908443053  0.5812739663646775  0.9900908570136016  1.0000
  C   C48       1.0  0.9431975712503924  0.081273966377592  0.5099091430179956  1.0000
  C   C49       1.0  0.7860997728289737  0.45886388797545774  0.9985665414164923  1.0000
  C   C50       1.0  0.21390022750584925  0.9588638879625433  0.501433458615105  1.0000
  C   C51       1.0  0.21390022786019752  0.5411361119987134  0.0014334585867594339  1.0000
  C   C52       1.0  0.78609977204404  0.04113611201162777  0.4985665413536031  1.0000
  C   C53       1.0  0.6833434974437566  0.2996270012736527  0.017398074818019443  1.0000
  C   C54       1.0  0.31665650246048094  0.7996270012607382  0.4826019251223431  1.0000
  C   C55       1.0  0.3166565021061327  0.7003729987005184  0.9826019251506887  1.0000
  C   C56       1.0  0.6833434982286902  0.20037299871343284  0.5173980748809086  1.0000
  N   N1        1.0  0.19083955386710766  0.7543183379145016  0.1158597311598512  1.0000
  N   N2        1.0  0.8091604460371299  0.2543183379274161  0.3841402687805114  1.0000
  N   N3        1.0  0.8091604456827816  0.24568166205966943  0.884140268808857  1.0000
  N   N4        1.0  0.19083955351275939  0.745681662046755  0.6158597311881968  1.0000
  N   N5        1.0  0.7312310014953464  0.10942138104119933  0.046437336773499406  1.0000
  N   N6        1.0  0.26876899840889107  0.6094213810282848  0.4535626631668631  1.0000
  N   N7        1.0  0.26876899805454285  0.8905786189329717  0.9535626631952088  1.0000
  N   N8        1.0  0.73123100228028  0.3905786189458862  0.5464373368363885  1.0000
  O   O1        1.0  0.9415034308401848  0.6936320830256291  0.14309966415375686  1.0000
  O   O2        1.0  0.05849656907677777  0.19363208303854354  0.35690033610640715  1.0000
  O   O3        1.0  0.05849656984898628  0.306367916948542  0.8569003358494949  1.0000
  O   O4        1.0  0.9415034304731116  0.8063679169356275  0.6430996638623011  1.0000
  O   O5        1.0  0.1164328557687744  0.2976141522962736  0.13901576058636633  1.0000
  O   O6        1.0  0.8835671441354631  0.7976141522833591  0.3609842393539962  1.0000
  O   O7        1.0  0.8835671449203967  0.7023858476778975  0.8609842394168854  1.0000
  O   O8        1.0  0.11643285541442615  0.20238584769081194  0.6390157606147119  1.0000
  O   O9        1.0  0.36194771801364295  0.0717670829710448  0.06913387473770684  1.0000
  O   O10       1.0  0.6380522818905945  0.5717670829581303  0.43086612520265577  1.0000
  O   O11       1.0  0.6380522826755282  0.9282329170031263  0.9308661252655448  1.0000
  O   O12       1.0  0.3619477176592947  0.42823291701604077  0.5691338747660524  1.0000
  O   O13       1.0  0.5596963866563631  0.7762930483720719  0.07792136735542732  1.0000
  O   O14       1.0  0.44030361326059947  0.2762930483849865  0.42207863290473674  1.0000
  O   O15       1.0  0.4403036128935261  0.22370695160209908  0.9220786326132808  1.0000
  O   O16       1.0  0.5596963874412968  0.7237069515891846  0.5779213674183165  1.0000
  S   S1        1.0  0.09386063729140925  0.5815825311310242  0.1480421685749157  1.0000
  S   S2        1.0  0.9061393626128282  0.08158253114393864  0.3519578313654469  1.0000
  S   S3        1.0  0.90613936225848  0.4184174688431469  0.8519578313937926  1.0000
  S   S4        1.0  0.09386063693706102  0.9184174688302325  0.6480421686032612  1.0000
