data_image0
_chemical_formula_structural       H128C72N8O48S4
_chemical_formula_sum              "H128 C72 N8 O48 S4"
_cell_length_a       10.257288251922338
_cell_length_b       18.20988024290004
_cell_length_c       13.360485922837398
_cell_angle_alpha    89.99997709336833
_cell_angle_beta     112.6660054640532
_cell_angle_gamma    90.00015477424483

_space_group_name_H-M_alt    "P 1"
_space_group_IT_number       1

loop_
  _space_group_symop_operation_xyz
  'x, y, z'

loop_
  _atom_site_type_symbol
  _atom_site_label
  _atom_site_symmetry_multiplicity
  _atom_site_fract_x
  _atom_site_fract_y
  _atom_site_fract_z
  _atom_site_occupancy
  H   H1        1.0  0.8981056905770395  0.9623478749233866  0.9345025413819642  1.0000
  H   H2        1.0  0.6018950492454557  0.46234853762695327  0.5654975796357034  1.0000
  H   H3        1.0  0.10189467137194154  0.0376521121048852  0.0654975140338417  1.0000
  H   H4        1.0  0.3981057597905158  0.5376519672523494  0.43450285136839606  1.0000
  H   H5        1.0  0.3776162505271131  0.013356509504385087  0.4013953161153513  1.0000
  H   H6        1.0  0.12238334743242935  0.5133558279957776  0.0986045554956273  1.0000
  H   H7        1.0  0.6223844768473376  0.9866433254089239  0.5986048832528077  1.0000
  H   H8        1.0  0.8776167063952313  0.48664401790015527  0.9013950100133258  1.0000
  H   H9        1.0  0.25251756270355163  0.9472925133129202  0.3204771546843427  1.0000
  H   H10       1.0  0.24748196741195  0.447292172012086  0.17952239517301313  1.0000
  H   H11       1.0  0.7474833705045929  0.052707267783548464  0.6795234502529944  1.0000
  H   H12       1.0  0.7525176777154013  0.5527076123785286  0.8204767088716692  1.0000
  H   H13       1.0  0.23830493767026217  0.8928361011077857  0.48744477149521953  1.0000
  H   H14       1.0  0.26169445945997144  0.3928360140328676  0.012554692010476473  1.0000
  H   H15       1.0  0.7616958685817373  0.10716395401564636  0.5125558443029129  1.0000
  H   H16       1.0  0.7383052904058106  0.6071640399916726  0.9874444035415982  1.0000
  H   H17       1.0  0.4114118869905665  0.888355262586884  0.48513830560790594  1.0000
  H   H18       1.0  0.08858738278385236  0.3883548018525226  0.014860629175337245  1.0000
  H   H19       1.0  0.5885889583474814  0.11164479363483734  0.5148626159766563  1.0000
  H   H20       1.0  0.9114124298261573  0.6116452961043184  0.9851380786297226  1.0000
  H   H21       1.0  0.5100428675272567  0.8839817083621306  0.6919338873530065  1.0000
  H   H22       1.0  0.989957633332046  0.38398223577391843  0.8080634065386771  1.0000
  H   H23       1.0  0.4899576601676476  0.1160183132628158  0.3080665452327655  1.0000
  H   H24       1.0  0.010043223925814929  0.6160188665837742  0.19193363024936128  1.0000
  H   H25       1.0  0.32689965504501645  0.8828651329897803  0.6706630522008666  1.0000
  H   H26       1.0  0.17310199521129624  0.38286508187515855  0.8293371261618836  1.0000
  H   H27       1.0  0.673100781131052  0.11713491828930347  0.3293375357717623  1.0000
  H   H28       1.0  0.8269001153220374  0.6171350342052951  0.17066284796719383  1.0000
  H   H29       1.0  0.47598353948205313  0.9270548857294986  0.8534167498796349  1.0000
  H   H30       1.0  0.02402139252332339  0.42705603777166046  0.6465832084727318  1.0000
  H   H31       1.0  0.5240172627064446  0.07294536049898331  0.14658381980019636  1.0000
  H   H32       1.0  0.9759842178465019  0.5729457955111903  0.3534164511870393  1.0000
  H   H33       1.0  0.5434817355398711  0.9997388791383189  0.7992307959516591  1.0000
  H   H34       1.0  0.9565235829357152  0.499739753937446  0.700769125041434  1.0000
  H   H35       1.0  0.4565186455351094  0.00026140333397907216  0.20076923521805043  1.0000
  H   H36       1.0  0.04348222698493065  0.5002620326675878  0.29923062994430605  1.0000
  H   H37       1.0  0.4364672699444529  0.07109121339229753  0.9086689870051636  1.0000
  H   H38       1.0  0.06353519013741943  0.5710916459414265  0.5913315792989435  1.0000
  H   H39       1.0  0.5635321314383556  0.9289085688014117  0.09133083712408901  1.0000
  H   H40       1.0  0.9364680435573532  0.4289086985872143  0.4086689971094732  1.0000
  H   H41       1.0  0.3426278701584977  0.993576918328702  0.9305314521059371  1.0000
  H   H42       1.0  0.157375780757973  0.4935780569546213  0.569468835762741  1.0000
  H   H43       1.0  0.6573723562113153  0.006423040692683103  0.06946865875811421  1.0000
  H   H44       1.0  0.8426285192470993  0.5064231585306055  0.4305316853049762  1.0000
  H   H45       1.0  0.11274197095014199  0.05304994407611207  0.8161314364553611  1.0000
  H   H46       1.0  0.38726406528672214  0.553056542914441  0.6838753716307308  1.0000
  H   H47       1.0  0.8872583737330656  0.9469501555283806  0.18386871411710418  1.0000
  H   H48       1.0  0.6127420349807962  0.44694987469219244  0.31613155412574334  1.0000
  H   H49       1.0  0.21315512300263748  0.10281054620184178  0.9351877102207693  1.0000
  H   H50       1.0  0.2868499108786253  0.6028135540748181  0.5648148407180025  1.0000
  H   H51       1.0  0.7868453242349895  0.8971895286908691  0.0648124506695015  1.0000
  H   H52       1.0  0.7131552521619017  0.3971896965696317  0.43518802549756624  1.0000
  H   H53       1.0  0.1140857309696408  0.22689477834109945  0.8477032610945354  1.0000
  H   H54       1.0  0.3858938897675743  0.7269036058617357  0.6522935253331483  1.0000
  H   H55       1.0  0.8859146025428549  0.7731052806261239  0.15229676115696528  1.0000
  H   H56       1.0  0.6140848172791935  0.2731048166808251  0.34770319937204813  1.0000
  H   H57       1.0  0.9975335426637649  0.16448051580471468  0.7530830555606317  1.0000
  H   H58       1.0  0.502458246149277  0.664490714294952  0.7469062689651905  1.0000
  H   H59       1.0  0.0024668341439575765  0.8355194981320399  0.2469169855661169  1.0000
  H   H60       1.0  0.49753323142262695  0.3355189191396828  0.25308299919843036  1.0000
  H   H61       1.0  0.00460982636922512  0.28979573778141327  0.6767890462445084  1.0000
  H   H62       1.0  0.4953786171663897  0.7898002019004616  0.8232089063939672  1.0000
  H   H63       1.0  0.9953903773111779  0.7102042937280991  0.323210904427679  1.0000
  H   H64       1.0  0.5046096407163533  0.21020364730785765  0.1767889075635704  1.0000
  H   H65       1.0  0.18588541142939027  0.27577901678733935  0.6974312447779178  1.0000
  H   H66       1.0  0.3141059263550171  0.7757783392701509  0.8025743162853232  1.0000
  H   H67       1.0  0.8141148830407152  0.7242210053866447  0.30256875237948916  1.0000
  H   H68       1.0  0.6858853091794842  0.2242210936554486  0.19743129620807684  1.0000
  H   H69       1.0  0.10204056412185449  0.2868063215162323  0.49349285451853103  1.0000
  H   H70       1.0  0.39795865326106183  0.7868069465315014  0.006507833840896172  1.0000
  H   H71       1.0  0.897959609243554  0.713193611145834  0.5065069973126289  1.0000
  H   H72       1.0  0.6020398779004067  0.21319352374945394  0.9934925149117053  1.0000
  H   H73       1.0  0.9285111768021769  0.29779461927079676  0.49332952769952454  1.0000
  H   H74       1.0  0.5714881269873965  0.7977963821387875  0.006671937972508968  1.0000
  H   H75       1.0  0.07148897856484474  0.7022053551268397  0.5066703292528557  1.0000
  H   H76       1.0  0.4285105188401459  0.20220473010129072  0.9933294605967661  1.0000
  H   H77       1.0  0.8518007168733596  0.18113578457034527  0.391329109094326  1.0000
  H   H78       1.0  0.6481992628588806  0.6811367192263705  0.1086683810156747  1.0000
  H   H79       1.0  0.1481993344802953  0.8188642019085492  0.6086708486292309  1.0000
  H   H80       1.0  0.3518002499707925  0.3188635066829117  0.8913292847429075  1.0000
  H   H81       1.0  0.9026437584162427  0.2501828319088416  0.3182537142963816  1.0000
  H   H82       1.0  0.5973600955445465  0.7501818375969709  0.181747967024714  1.0000
  H   H83       1.0  0.09735614781363894  0.7498169903733988  0.6817460131096112  1.0000
  H   H84       1.0  0.402642688816612  0.24981647396885645  0.8182537330774278  1.0000
  H   H85       1.0  0.9350294997163133  0.13312602750268843  0.21723200323334046  1.0000
  H   H86       1.0  0.5649708095228166  0.633126908527531  0.2827676498900651  1.0000
  H   H87       1.0  0.0649711465306929  0.866873709661438  0.7827681098624715  1.0000
  H   H88       1.0  0.435029099988039  0.3668733920665274  0.7172317551498348  1.0000
  H   H89       1.0  0.9103373750730169  0.07516247454641262  0.31666677921533887  1.0000
  H   H90       1.0  0.5896629601723693  0.5751632811924645  0.1833331631238837  1.0000
  H   H91       1.0  0.08966320351402172  0.924837242299023  0.6833333257162253  1.0000
  H   H92       1.0  0.41033724330805227  0.424836906825526  0.8166665502211394  1.0000
  H   H93       1.0  0.06882240559288008  0.02201019516964521  0.23048785305121203  1.0000
  H   H94       1.0  0.43117886686651474  0.5220105631339413  0.26951192548984104  1.0000
  H   H95       1.0  0.9311783206386519  0.9779896452351837  0.7695123699280431  1.0000
  H   H96       1.0  0.5688216552608908  0.4779895540436437  0.7304877060639288  1.0000
  H   H97       1.0  0.18817672483066467  0.09662475027020533  0.28305076579821814  1.0000
  H   H98       1.0  0.3118239624527281  0.5966246341278367  0.21694967749234936  1.0000
  H   H99       1.0  0.8118239800248573  0.9033750797007015  0.7169495189296989  1.0000
  H   H100      1.0  0.6881759252542198  0.4033752024323738  0.7830499074285241  1.0000
  H   H101      1.0  0.774862444711154  0.3010591047501444  0.9419023863183452  1.0000
  H   H102      1.0  0.725137884563268  0.801059074354584  0.5580975556421739  1.0000
  H   H103      1.0  0.2251380157068913  0.6989407477358185  0.05809793193335006  1.0000
  H   H104      1.0  0.27486139764727174  0.19894075286954666  0.44190217388404923  1.0000
  H   H105      1.0  0.9826780669481779  0.22069942844632698  0.9676213681653233  1.0000
  H   H106      1.0  0.5173214150684441  0.7206994905108534  0.5323784565591988  1.0000
  H   H107      1.0  0.017322131858261917  0.7792998721410944  0.032379931310963624  1.0000
  H   H108      1.0  0.48267758757202783  0.2793006343537523  0.4676207848224149  1.0000
  H   H109      1.0  0.19275321904751877  0.3059030413604046  0.29261758350244427  1.0000
  H   H110      1.0  0.30724708486401126  0.8059030066914243  0.20738233934759465  1.0000
  H   H111      1.0  0.8072469239627461  0.6940973421556655  0.7073830594161872  1.0000
  H   H112      1.0  0.6927534674886096  0.1940973713336577  0.7926168304102506  1.0000
  H   H113      1.0  0.9853022392080318  0.383271192962336  0.2684451510977507  1.0000
  H   H114      1.0  0.5146987869081576  0.8832711743270186  0.23155496651071067  1.0000
  H   H115      1.0  0.014697713151676603  0.616729596926506  0.7315546895867493  1.0000
  H   H116      1.0  0.4853023738496271  0.11672904828827393  0.7684450100749948  1.0000
  H   H117      1.0  0.769993017921469  0.4294861782546404  0.1543215289570127  1.0000
  H   H118      1.0  0.7300079618068183  0.9294862746557975  0.3456785961473671  1.0000
  H   H119      1.0  0.23000754637808388  0.570513843370361  0.8456787251596394  1.0000
  H   H120      1.0  0.2699924471316505  0.07051376399281413  0.6543216266935159  1.0000
  H   H121      1.0  0.6606136238809817  0.3598541572284117  0.08388302351654382  1.0000
  H   H122      1.0  0.8393870871065473  0.8598544490131392  0.4161170459415501  1.0000
  H   H123      1.0  0.3393864809601477  0.640146339413245  0.9161161814410171  1.0000
  H   H124      1.0  0.16061344939100722  0.14014557755424376  0.5838829993072979  1.0000
  H   H125      1.0  0.717320650372469  0.42424020784460836  0.016116302152029298  1.0000
  H   H126      1.0  0.7826804390902173  0.9242404001195498  0.4838838913986485  1.0000
  H   H127      1.0  0.28268082148480195  0.5757605079097692  0.9838839257138956  1.0000
  H   H128      1.0  0.2173201261225084  0.07575954462410585  0.5161164026591883  1.0000
  C   C1        1.0  0.2875348003981637  0.9785462687202569  0.3970116094125001  1.0000
  C   C2        1.0  0.21246493195446864  0.4785460100002142  0.10298816405119508  1.0000
  C   C3        1.0  0.7124659410599775  0.0214536112235321  0.6029887902491403  1.0000
  C   C4        1.0  0.7875351699187496  0.5214539254076206  0.8970112765421957  1.0000
  C   C5        1.0  0.3302776456304401  0.9260071436482293  0.4908699150132589  1.0000
  C   C6        1.0  0.16972204333614843  0.42600689762759586  0.009129710904414112  1.0000
  C   C7        1.0  0.669723047158227  0.07399283129889202  0.5091304896216617  1.0000
  C   C8        1.0  0.8302780635956989  0.5739931261937747  0.990869793318414  1.0000
  C   C9        1.0  0.41817882440471454  0.9189721348683847  0.6822746151555609  1.0000
  C   C10       1.0  0.08182289246262157  0.41897252910134947  0.8177244107667357  1.0000
  C   C11       1.0  0.5818216506350287  0.08102798011244372  0.31772575460253705  1.0000
  C   C12       1.0  0.9181791987454909  0.5810283568909607  0.18227447231630556  1.0000
  C   C13       1.0  0.4505728237077956  0.9642653953780873  0.7832342148436217  1.0000
  C   C14       1.0  0.04943205874297542  0.46426627015556676  0.7167661441616198  1.0000
  C   C15       1.0  0.5494277495443733  0.03573476353500511  0.2167661961243731  1.0000
  C   C16       1.0  0.9505734026620363  0.5357349420356015  0.2832346410283795  1.0000
  C   C17       1.0  0.3385819724808109  0.038315788100817885  0.8737847145776013  1.0000
  C   C18       1.0  0.16142197469866887  0.5383169125246413  0.6262159791102395  1.0000
  C   C19       1.0  0.6614178204407506  0.9616841571914738  0.12621505170299047  1.0000
  C   C20       1.0  0.8385826987177739  0.46168433865569625  0.3737851104286051  1.0000
  C   C21       1.0  0.21067777697488296  0.08488905445125412  0.855860187860897  1.0000
  C   C22       1.0  0.28932455348102104  0.5848920489835765  0.6441415456464691  1.0000
  C   C23       1.0  0.7893220659979493  0.9151110484477942  0.14413977669525285  1.0000
  C   C24       1.0  0.7106782940569079  0.41511100561178826  0.35586052878695806  1.0000
  C   C25       1.0  0.09667007684067917  0.19549918413988904  0.7728640486927536  1.0000
  C   C26       1.0  0.40331951742148303  0.6955058233571123  0.7271325604737805  1.0000
  C   C27       1.0  0.9033302429128114  0.8045008534103785  0.22713597619950265  1.0000
  C   C28       1.0  0.5966696953158622  0.3045004432211104  0.27286413955118494  1.0000
  C   C29       1.0  0.08451251202334652  0.24789993926682757  0.6825363683119838  1.0000
  C   C30       1.0  0.41547955345297183  0.7479029342550834  0.817464430653492  1.0000
  C   C31       1.0  0.9154877339660942  0.7521000867511933  0.3174635814814547  1.0000
  C   C32       1.0  0.5845122780178217  0.2520997304337519  0.1825363661293508  1.0000
  C   C33       1.0  0.006665457856633702  0.2572851432378391  0.49047382203747414  1.0000
  C   C34       1.0  0.49333448197698115  0.7572862554702815  0.009527024801115443  1.0000
  C   C35       1.0  0.9933346563308145  0.742714849830951  0.5095260159209398  1.0000
  C   C36       1.0  0.5066648705375091  0.2427144179976445  0.9904737383428265  1.0000
  C   C37       1.0  0.9422692062464514  0.21274479521511927  0.3883829458697156  1.0000
  C   C38       1.0  0.5577314766977314  0.7127452341583249  0.11161684410716241  1.0000
  C   C39       1.0  0.057730818937381745  0.7872551495281817  0.6116169367010118  1.0000
  C   C40       1.0  0.44226853733155536  0.2872546551205917  0.8883829056565469  1.0000
  C   C41       1.0  0.9883047989517206  0.10872955440499821  0.2985190705913977  1.0000
  C   C42       1.0  0.5116955572657701  0.6087301013757754  0.2014807602109322  1.0000
  C   C43       1.0  0.011695823879347754  0.8912702393218045  0.701481083436934  1.0000
  C   C44       1.0  0.48830439479705245  0.3912699367234202  0.7985188693145427  1.0000
  C   C45       1.0  0.10825633056916026  0.06210317289693521  0.29679983137383215  1.0000
  C   C46       1.0  0.39174401485555277  0.5621033867689326  0.20320003940345807  1.0000
  C   C47       1.0  0.8917443595330609  0.9378966735485353  0.7032004384838658  1.0000
  C   C48       1.0  0.6082560485810007  0.43789659971003375  0.7967995012719797  1.0000
  C   C49       1.0  0.868512853257727  0.3470841296201666  0.10328077101262312  1.0000
  C   C50       1.0  0.6314878668934375  0.8470841526985152  0.3967193021214506  1.0000
  C   C51       1.0  0.13148755161170775  0.6529160501606232  0.8967194072052819  1.0000
  C   C52       1.0  0.36851247333853754  0.15291575964502982  0.6032806165948051  1.0000
  C   C53       1.0  0.8665512319453519  0.30174007328747765  0.0181697158296627  1.0000
  C   C54       1.0  0.633448999108407  0.8017400667710711  0.4818302378435819  1.0000
  C   C55       1.0  0.13344929912143022  0.6982598692595295  0.9818306616239496  1.0000
  C   C56       1.0  0.36655032849624414  0.1982596797277276  0.5181692222700689  1.0000
  C   C57       1.0  0.9825588273582212  0.2573287780031019  0.03196347943321448  1.0000
  C   C58       1.0  0.5174410073149102  0.7573287998841565  0.46803634369856967  1.0000
  C   C59       1.0  0.017441329269094103  0.7426708410927457  0.9680374923784697  1.0000
  C   C60       1.0  0.4825581664846007  0.24267109543490156  0.5319626544789714  1.0000
  C   C61       1.0  0.09738152517424112  0.25929703248872754  0.131528254079844  1.0000
  C   C62       1.0  0.40261839517573933  0.7592969989344673  0.3684715372487489  1.0000
  C   C63       1.0  0.9026186024633717  0.7407028205460156  0.8684728378408526  1.0000
  C   C64       1.0  0.597380825096503  0.24070300786261117  0.6315271858494077  1.0000
  C   C65       1.0  0.09997050981683199  0.303541843639054  0.2173503332936804  1.0000
  C   C66       1.0  0.40002982943589305  0.8035418422197003  0.28264955345601533  1.0000
  C   C67       1.0  0.9000294371144121  0.6964582998972356  0.7826504241579104  1.0000
  C   C68       1.0  0.5999705745266667  0.1964583447002081  0.7173497046122165  1.0000
  C   C69       1.0  0.9838430344692196  0.34808404390303493  0.20239913483208252  1.0000
  C   C70       1.0  0.5161577026060049  0.8480840297110621  0.29760092558157347  1.0000
  C   C71       1.0  0.016157148663210115  0.6519161847521217  0.7976012341108177  1.0000
  C   C72       1.0  0.483842827994848  0.15191599356146415  0.7023987025066323  1.0000
  N   N1        1.0  0.7468683499470338  0.39349020534750584  0.08870426170280214  1.0000
  N   N2        1.0  0.7531325794693452  0.8934903743317422  0.4112958859402616  1.0000
  N   N3        1.0  0.2531322620877336  0.6065102023317408  0.9112956608258418  1.0000
  N   N4        1.0  0.2468678697864788  0.10650958578810825  0.5887043017475215  1.0000
  N   N5        1.0  0.22181650968546981  0.21493980596288392  0.14632137546110496  1.0000
  N   N6        1.0  0.2781830801787433  0.7149397183654245  0.35367827497205045  1.0000
  N   N7        1.0  0.7781834709815182  0.7850600437767891  0.8536799975513433  1.0000
  N   N8        1.0  0.7218147311286415  0.28506133017285257  0.6463196200592628  1.0000
  O   O1        1.0  0.7118975141103784  0.10499929425914004  0.9548511324286246  1.0000
  O   O2        1.0  0.788104477896632  0.6050000567842125  0.5451490135146709  1.0000
  O   O3        1.0  0.2881029995681416  0.8950008080912795  0.04514878851672839  1.0000
  O   O4        1.0  0.21189631762966948  0.39500055298316017  0.4548516439993547  1.0000
  O   O5        1.0  0.9638030580398258  0.07877212955276675  0.05084653253391819  1.0000
  O   O6        1.0  0.5361984356241702  0.5787726407135647  0.44915329833749346  1.0000
  O   O7        1.0  0.03619740549348441  0.9212278322145738  0.9491535089596298  1.0000
  O   O8        1.0  0.4638024660030356  0.4212277136980673  0.5508469731081266  1.0000
  O   O9        1.0  0.8054814296333908  0.990097017044471  0.9214620385678464  1.0000
  O   O10       1.0  0.6945192519062034  0.4900977401693495  0.5785377034837237  1.0000
  O   O11       1.0  0.19451896424864554  0.009902994695693359  0.07853796048717569  1.0000
  O   O12       1.0  0.3054815278101898  0.5099028492793732  0.4214629388455792  1.0000
  O   O13       1.0  0.8713784649208808  0.10602177034411239  0.8567015933012612  1.0000
  O   O14       1.0  0.6286228727436547  0.6060224442291013  0.6432981859112964  1.0000
  O   O15       1.0  0.1286221445973407  0.8939782095453722  0.1432984400016692  1.0000
  O   O16       1.0  0.3713772822744204  0.3939781419242844  0.3567020608941997  1.0000
  O   O17       1.0  0.38479719154447345  0.9661795596391695  0.5904089545593154  1.0000
  O   O18       1.0  0.11520330582991009  0.4661794451745886  0.9095909820819672  1.0000
  O   O19       1.0  0.6152032236769462  0.033820501524650166  0.40959157852479194  1.0000
  O   O20       1.0  0.8847974099904382  0.5338208027014303  0.09040860982492428  1.0000
  O   O21       1.0  0.32835008956793515  0.007392468572520637  0.7716671354439272  1.0000
  O   O22       1.0  0.1716544860029774  0.5073935820491987  0.7283337104441626  1.0000
  O   O23       1.0  0.6716500899044092  0.9926075135132592  0.22833278257415815  1.0000
  O   O24       1.0  0.8283506026928228  0.4926077921415881  0.2716674832477348  1.0000
  O   O25       1.0  0.21206052519818486  0.14657140300964885  0.7894846426780837  1.0000
  O   O26       1.0  0.28793493237603884  0.6465743453293004  0.7105147892222118  1.0000
  O   O27       1.0  0.7879398736532081  0.8534286400321947  0.21051544467959918  1.0000
  O   O28       1.0  0.7120603715458222  0.3534284412741919  0.28948507493036957  1.0000
  O   O29       1.0  0.04020436652196111  0.20831779604854567  0.5818575651379272  1.0000
  O   O30       1.0  0.4597962759399894  0.7083194426284696  0.9181424207704145  1.0000
  O   O31       1.0  0.9597958741200777  0.7916822184372676  0.41814240102726524  1.0000
  O   O32       1.0  0.5402040894653883  0.2916818003114259  0.08185755708368078  1.0000
  O   O33       1.0  0.04581898237303783  0.16406624197567965  0.37974629019072703  1.0000
  O   O34       1.0  0.4541815789626148  0.664066377635302  0.12025342256341745  1.0000
  O   O35       1.0  0.9541812261575475  0.8359336895880759  0.6202537816817245  1.0000
  O   O36       1.0  0.5458184170564896  0.33593338094536485  0.8797460426569782  1.0000
  O   O37       1.0  0.17262028351185763  0.023629196490423464  0.39829522227388087  1.0000
  O   O38       1.0  0.32737948165041497  0.523629375527053  0.10170460595544815  1.0000
  O   O39       1.0  0.8273804098057721  0.9763706362262408  0.601705035816801  1.0000
  O   O40       1.0  0.6726207337020463  0.4763705280299976  0.8982950413150513  1.0000
  O   O41       1.0  0.24022782028805642  0.19396676810421581  0.06424733942993979  1.0000
  O   O42       1.0  0.25977156075209323  0.6939666171054113  0.43575214796371764  1.0000
  O   O43       1.0  0.7597722728009154  0.8060327642254079  0.9357542399449873  1.0000
  O   O44       1.0  0.7402277531306333  0.30603262417331695  0.5642461329547542  1.0000
  O   O45       1.0  0.3045415729228946  0.20102496014560725  0.2408234493614814  1.0000
  O   O46       1.0  0.19545789674254074  0.7010248907723294  0.25917609800291647  1.0000
  O   O47       1.0  0.6954586187794485  0.7989750905839976  0.7591780605677847  1.0000
  O   O48       1.0  0.8045359946403067  0.29897870912506225  0.740822170577294  1.0000
  S   S1        1.0  0.8393319522403819  0.07538548464010757  0.9461199841230505  1.0000
  S   S2        1.0  0.6606695725826812  0.5753862643750989  0.5538798322613979  1.0000
  S   S3        1.0  0.16066863530999126  0.924614543574784  0.053879982014103975  1.0000
  S   S4        1.0  0.3393311492631895  0.42461429487020796  0.44612072697588606  1.0000
