data_image0
_chemical_formula_structural       H56C60N8O8S4
_chemical_formula_sum              "H56 C60 N8 O8 S4"
_cell_length_a       8.661693585564436
_cell_length_b       7.981710360496381
_cell_length_c       19.44525416579532
_cell_angle_alpha    90.0
_cell_angle_beta     91.97622253623793
_cell_angle_gamma    90.0

_space_group_name_H-M_alt    "P 1"
_space_group_IT_number       1

loop_
  _space_group_symop_operation_xyz
  'x, y, z'

loop_
  _atom_site_type_symbol
  _atom_site_label
  _atom_site_symmetry_multiplicity
  _atom_site_fract_x
  _atom_site_fract_y
  _atom_site_fract_z
  _atom_site_occupancy
  H   H1        1.0  0.6694003234326404  0.2780644022093999  0.257136159590277  1.0000
  H   H2        1.0  0.33059967597485784  0.778064402178305  0.24286384053223187  1.0000
  H   H3        1.0  0.3305996761767069  0.7219355977284102  0.7428638407124118  1.0000
  H   H4        1.0  0.6694003236292473  0.2219355977595052  0.7571361592561174  1.0000
  H   H5        1.0  0.7462104224882232  0.025592354366927497  0.45193082146488783  1.0000
  H   H6        1.0  0.2537895780744588  0.5255923543358325  0.04806917867303204  1.0000
  H   H7        1.0  0.25378957827106574  0.9744076455708827  0.5480691783388725  1.0000
  H   H8        1.0  0.7462104215348885  0.47440764560197757  0.9519308216296568  1.0000
  H   H9        1.0  0.8429103606982268  0.20169629155772595  0.35672571312809065  1.0000
  H   H10       1.0  0.15708963870927153  0.7016962915266309  0.14327428699441827  1.0000
  H   H11       1.0  0.15708963890587846  0.7983037083800842  0.6432742866602587  1.0000
  H   H12       1.0  0.8429103609000758  0.29830370841117915  0.8567257133082705  1.0000
  H   H13       1.0  0.4764413314984719  0.9153136946885724  0.4462261536610738  1.0000
  H   H14       1.0  0.5235586679090263  0.41531369471966734  0.053773846461435154  1.0000
  H   H15       1.0  0.5235586681108755  0.08468630524923774  0.553773846641615  1.0000
  H   H16       1.0  0.4764413316950788  0.5846863052181428  0.9462261533269141  1.0000
  H   H17       1.0  0.004560190867445327  0.9210427349487048  0.286072749235505  1.0000
  H   H18       1.0  0.995439808540053  0.42104273497979977  0.21392725088700393  1.0000
  H   H19       1.0  0.9954398087366599  0.07895726498910531  0.7139272505528443  1.0000
  H   H20       1.0  0.004560191069294365  0.5789572649580104  0.7860727494156848  1.0000
  H   H21       1.0  0.017995090355269656  0.06827682356117325  0.21609480659829275  1.0000
  H   H22       1.0  0.9820049090522286  0.5682768235300784  0.2839051935242162  1.0000
  H   H23       1.0  0.9820049092488353  0.9317231763766369  0.7839051931900567  1.0000
  H   H24       1.0  0.017995090557118697  0.4317231764077318  0.7160948067784727  1.0000
  H   H25       1.0  0.00020047598624928757  0.8315239190898487  0.5458220939506917  1.0000
  H   H26       1.0  0.9997995238197049  0.33152391912094364  0.9541779060178376  1.0000
  H   H27       1.0  0.9997995236230979  0.16847608084796148  0.45417790635199723  1.0000
  H   H28       1.0  0.00020047578440024756  0.6684760808168666  0.04582209377051179  1.0000
  H   H29       1.0  0.8456720169747663  0.6966494383860599  0.6357704026895605  1.0000
  H   H30       1.0  0.15432798283118784  0.19664943841715485  0.8642295972789688  1.0000
  H   H31       1.0  0.1543279826293388  0.3033505615517502  0.3642295970987888  1.0000
  H   H32       1.0  0.8456720167781595  0.8033505615206553  0.13577040302372015  1.0000
  H   H33       1.0  0.7798197289911826  0.5175094301145649  0.3920597822254913  1.0000
  H   H34       1.0  0.22018027157149955  0.017509430145659737  0.10794021791242855  1.0000
  H   H35       1.0  0.22018027177334862  0.48249056982324534  0.6079402180926085  1.0000
  H   H36       1.0  0.7798197291877895  0.9824905697921504  0.8920597818913317  1.0000
  H   H37       1.0  0.6252719804677295  0.3832141347972666  0.48131994923807137  1.0000
  H   H38       1.0  0.37472802009495265  0.8832141347661716  0.01868005089984855  1.0000
  H   H39       1.0  0.37472802029680174  0.6167858651405436  0.5186800510800285  1.0000
  H   H40       1.0  0.6252719806695785  0.11678586517163844  0.9813199494182513  1.0000
  H   H41       1.0  0.7056476166157147  0.4101544020192192  0.6629720309331188  1.0000
  H   H42       1.0  0.2943523843506654  0.9101544019881244  0.8370279695651608  1.0000
  H   H43       1.0  0.29435238414881637  0.5898455979185908  0.337027969384981  1.0000
  H   H44       1.0  0.7056476164138658  0.08984559794968584  0.16297203075293898  1.0000
  H   H45       1.0  0.5629649118101601  0.3455134595774149  0.6005081829348332  1.0000
  H   H46       1.0  0.4370350879957941  0.84551345954632  0.8994918170336961  1.0000
  H   H47       1.0  0.437035087793945  0.6544865403603952  0.39949181685351615  1.0000
  H   H48       1.0  0.5629649127687371  0.15448654039149018  0.10050818328440382  1.0000
  H   H49       1.0  0.5492485571997929  0.5437326041645667  0.6410590124399423  1.0000
  H   H50       1.0  0.45075144261140343  0.04373260419566164  0.8589409880429263  1.0000
  H   H51       1.0  0.45075144240955434  0.45626739577324343  0.3589409878627464  1.0000
  H   H52       1.0  0.5492485569979438  0.9562673957421485  0.1410590122597625  1.0000
  H   H53       1.0  0.17218146553073865  0.9095713252051038  0.39309126598996635  1.0000
  H   H54       1.0  0.8278185338715175  0.40957132523619866  0.10690873361820304  1.0000
  H   H55       1.0  0.8278185340733666  0.0904286747327064  0.606908733798383  1.0000
  H   H56       1.0  0.1721814657325877  0.5904286747016115  0.8930912661701463  1.0000
  C   C1        1.0  0.4217859617428616  0.03555429565629484  0.3490429575973109  1.0000
  C   C2        1.0  0.5782140376646367  0.5355542956251998  0.15095704252519798  1.0000
  C   C3        1.0  0.5782140378664856  0.9644457042815153  0.6509570427053779  1.0000
  C   C4        1.0  0.4217859619394685  0.46444570431261023  0.8490429572631514  1.0000
  C   C5        1.0  0.20646581113378754  0.04670067481336401  0.28138749283765757  1.0000
  C   C6        1.0  0.7935341882737107  0.546700674782269  0.2186125072848514  1.0000
  C   C7        1.0  0.7935341884703176  0.9532993251244462  0.7186125069506918  1.0000
  C   C8        1.0  0.2064658113356366  0.45329932515554106  0.7813874930178374  1.0000
  C   C9        1.0  0.6277083420785022  0.20004238413641243  0.2984241943728565  1.0000
  C   C10       1.0  0.37229165732899605  0.7000423841053175  0.20157580574965248  1.0000
  C   C11       1.0  0.37229165753084503  0.799957617054262  0.7015758059298324  1.0000
  C   C12       1.0  0.6277083422751091  0.29995761583249264  0.7984241940386968  1.0000
  C   C13       1.0  0.4763528502921483  0.14072422065815818  0.29653890465608107  1.0000
  C   C14       1.0  0.52364714911535  0.6407242206270632  0.20346109546642782  1.0000
  C   C15       1.0  0.5236471493171989  0.8592757792796519  0.7034610956466077  1.0000
  C   C16       1.0  0.4763528504887552  0.3592757793107469  0.7965389043219214  1.0000
  C   C17       1.0  0.6702710386316517  0.05554057463598951  0.4078025748192644  1.0000
  C   C18       1.0  0.32972896077584657  0.5555405746048946  0.09219742530324454  1.0000
  C   C19       1.0  0.32972896097245347  0.9444594253018207  0.5921974249690849  1.0000
  C   C20       1.0  0.6702710388335007  0.44445942533291555  0.9078025749994442  1.0000
  C   C21       1.0  0.7243308581691362  0.15604144146400017  0.35454992641084565  1.0000
  C   C22       1.0  0.27566914238830365  0.6560414414329052  0.14545007321273473  1.0000
  C   C23       1.0  0.27566914259015274  0.84395855847381  0.6454500733929146  1.0000
  C   C24       1.0  0.7243308583709853  0.34395855850490487  0.8545499265910255  1.0000
  C   C25       1.0  0.5195650858782914  0.9939172071769637  0.40528224945284447  1.0000
  C   C26       1.0  0.48043491352920675  0.49391720720805865  0.09471775066966448  1.0000
  C   C27       1.0  0.4804349137310558  0.006082792760846388  0.5947177508498444  1.0000
  C   C28       1.0  0.5195650860748984  0.5060827927297514  0.9052822491186849  1.0000
  C   C29       1.0  0.9953200497014515  0.761452952500024  0.41035235273861315  1.0000
  C   C30       1.0  0.004679950861230626  0.2614529525311189  0.08964764739930678  1.0000
  C   C31       1.0  0.004679949902653709  0.2385470474377862  0.5896476470497362  1.0000
  C   C32       1.0  0.9953200499033004  0.7385470474066912  0.9103523529187931  1.0000
  C   C33       1.0  0.9005613459015624  0.683239197326731  0.4633118090684726  1.0000
  C   C34       1.0  0.09943865465587737  0.18323919735782587  0.03668819055510788  1.0000
  C   C35       1.0  0.09943865485772642  0.31676080261107914  0.5366881907352877  1.0000
  C   C36       1.0  0.9005613461034117  0.8167608025799843  0.9633118092486523  1.0000
  C   C37       1.0  0.9183732624101992  0.7327187915694164  0.5323516054725628  1.0000
  C   C38       1.0  0.08162673855093869  0.2327187903476471  0.9676483945113774  1.0000
  C   C39       1.0  0.08162673834908964  0.267281209621258  0.4676483943311975  1.0000
  C   C40       1.0  0.9183732622083504  0.7672812095901631  0.0323516052923829  1.0000
  C   C41       1.0  0.8309071771866062  0.6576197159418812  0.5821916497857188  1.0000
  C   C42       1.0  0.16909282261934785  0.15761971597297608  0.9178083501828105  1.0000
  C   C43       1.0  0.1690928235779248  0.342380283995929  0.417808350532381  1.0000
  C   C44       1.0  0.8309071769847574  0.8423802839648341  0.08219164960553894  1.0000
  C   C45       1.0  0.7935820139636474  0.5575719938455936  0.4454233583704351  1.0000
  C   C46       1.0  0.20641798544385084  0.05757199387668865  0.05457664175207387  1.0000
  C   C47       1.0  0.20641798564569988  0.44242800609221644  0.5545766419322539  1.0000
  C   C48       1.0  0.7935820141654965  0.9424280060611215  0.945423358550615  1.0000
  C   C49       1.0  0.7065372739312674  0.48259973564869457  0.49575394807239487  1.0000
  C   C50       1.0  0.2934627266261725  0.9825997356175996  0.004246051551185576  1.0000
  C   C51       1.0  0.2934627256728377  0.5174002642891157  0.5042460517159545  1.0000
  C   C52       1.0  0.7065372741331164  0.01740026432021054  0.9957539482525748  1.0000
  C   C53       1.0  0.7234313516480383  0.531505477948234  0.5649172464519934  1.0000
  C   C54       1.0  0.2765686481579158  0.03150547797932889  0.9350827535165358  1.0000
  C   C55       1.0  0.27656864911125056  0.4684945232424405  0.4350827533517668  1.0000
  C   C56       1.0  0.7234313514514314  0.9684945232113455  0.06491724678615306  1.0000
  C   C57       1.0  0.6303674839953085  0.45279745151955625  0.6198282643012017  1.0000
  C   C58       1.0  0.3696325158106457  0.9527974514884613  0.8801717356673275  1.0000
  C   C59       1.0  0.3696325156087967  0.5472025484182539  0.38017173548714756  1.0000
  C   C60       1.0  0.6303674849486433  0.04720254844934884  0.11982826413643281  1.0000
  N   N1        1.0  0.27030344058386874  0.9840666116969355  0.3388446098042376  1.0000
  N   N2        1.0  0.7296965599788133  0.48406661172803045  0.16115539033368234  1.0000
  N   N3        1.0  0.7296965601754202  0.0159333882408746  0.6611553899995227  1.0000
  N   N4        1.0  0.2703034407857178  0.5159333882097797  0.8388446099844175  1.0000
  N   N5        1.0  0.06184669099888667  0.01180281490371461  0.2597017421690862  1.0000
  N   N6        1.0  0.9381533084086117  0.5118028148726197  0.24029825795342277  1.0000
  N   N7        1.0  0.9381533086104606  0.9881971850340955  0.7402982581336027  1.0000
  N   N8        1.0  0.061846691195493575  0.4881971850651905  0.7597017418349266  1.0000
  O   O1        1.0  0.10364417872525676  0.8641510037920057  0.43425754251448906  1.0000
  O   O2        1.0  0.8963558206822415  0.36415100382310067  0.06574245760801982  1.0000
  O   O3        1.0  0.8963558208788484  0.13584899614580442  0.5657424572738602  1.0000
  O   O4        1.0  0.1036441789271058  0.6358489961147095  0.9342575426946692  1.0000
  O   O5        1.0  0.9743499082236988  0.7342263556699072  0.34719676947020794  1.0000
  O   O6        1.0  0.025650091183799573  0.2342263557010022  0.152803230652301  1.0000
  O   O7        1.0  0.025650091380406477  0.26577364426790284  0.6528032303181415  1.0000
  O   O8        1.0  0.9743499084255477  0.7657736442368079  0.8471967696503877  1.0000
  S   S1        1.0  0.32888616343408855  0.17884022415356438  0.23502837788631498  1.0000
  S   S2        1.0  0.6711138359734097  0.6788402241224695  0.26497162223619397  1.0000
  S   S3        1.0  0.6711138361700166  0.8211597757842457  0.7649716219020343  1.0000
  S   S4        1.0  0.3288861636359376  0.3211597758153407  0.7350283780664949  1.0000
