data_image0
_chemical_formula_structural       H14C24N2O2F8I4
_chemical_formula_sum              "H14 C24 N2 O2 F8 I4"
_cell_length_a       7.982647065188991
_cell_length_b       8.541378359389126
_cell_length_c       11.566637762084135
_cell_angle_alpha    89.03627885434231
_cell_angle_beta     83.17266559093224
_cell_angle_gamma    66.00502903063547

_space_group_name_H-M_alt    "P 1"
_space_group_IT_number       1

loop_
  _space_group_symop_operation_xyz
  'x, y, z'

loop_
  _atom_site_type_symbol
  _atom_site_label
  _atom_site_symmetry_multiplicity
  _atom_site_fract_x
  _atom_site_fract_y
  _atom_site_fract_z
  _atom_site_occupancy
  H   H1        1.0  0.5400213608433558  0.3466096144620317  0.9474635148194691  1.0000
  H   H2        1.0  0.45997863931344  0.6533903852498704  0.052536485242851975  1.0000
  H   H3        1.0  0.6756884106178966  0.04550083135119482  0.8596753704788805  1.0000
  H   H4        1.0  0.3243115895388992  0.9544991683607071  0.14032462958344064  1.0000
  H   H5        1.0  0.910114490449231  0.7431378699784744  0.8724745781496444  1.0000
  H   H6        1.0  0.08988550914287331  0.2568621310149143  0.12752542191245808  1.0000
  H   H7        1.0  0.784664112535083  0.6848694674790917  0.9895623337994297  1.0000
  H   H8        1.0  0.21533588762171293  0.3151305322328103  0.010437666262891427  1.0000
  H   H9        1.0  0.007108733205375748  0.6731412529543297  0.00521859098352396  1.0000
  H   H10       1.0  0.99289126695142  0.32685874675757237  0.9947814090787972  1.0000
  H   H11       1.0  0.885643563304615  0.8680560300038334  0.1863346353126176  1.0000
  H   H12       1.0  0.11435643685218094  0.13194396970806863  0.8136653647497036  1.0000
  H   H13       1.0  0.7351706830181164  0.1754862848792709  0.26162199499719374  1.0000
  H   H14       1.0  0.26482931657398784  0.8245137161141178  0.7383780050649087  1.0000
  C   C1        1.0  0.6158320587741675  0.23294418882288329  0.9946829046643545  1.0000
  C   C2        1.0  0.3841679408179369  0.7670558121705053  0.005317095397747932  1.0000
  C   C3        1.0  0.6930233936825416  0.06654796089750566  0.9492666834692622  1.0000
  C   C4        1.0  0.3069766064742542  0.9334520388143964  0.050733316593058866  1.0000
  C   C5        1.0  0.7937614747299908  0.9291318061327452  0.015772428360104195  1.0000
  C   C6        1.0  0.2062385250261246  0.07086819481572822  0.9842275708307507  1.0000
  C   C7        1.0  0.8793488037537102  0.7483769775373256  0.9676600749871311  1.0000
  C   C8        1.0  0.12065119640308558  0.2516230221745764  0.03233992507519  1.0000
  C   C9        1.0  0.8091564899317445  0.9688760853469754  0.13007960223678547  1.0000
  C   C10       1.0  0.1908435102250513  0.031123914364926723  0.8699203978255357  1.0000
  C   C11       1.0  0.7292499263081935  0.13607756026637197  0.17391986428701167  1.0000
  C   C12       1.0  0.2707500738486023  0.86392243944553  0.8260801357753096  1.0000
  C   C13       1.0  0.9905162744381037  0.6924363888794378  0.41187112582984037  1.0000
  C   C14       1.0  0.009483725154000562  0.30756361211395083  0.5881288742322621  1.0000
  C   C15       1.0  0.8131555862307168  0.6941484930303171  0.41444978939846017  1.0000
  C   C16       1.0  0.1868444133613874  0.30585150796307153  0.5855502106636423  1.0000
  C   C17       1.0  0.6786626623846012  0.7812192739301745  0.5067945155832796  1.0000
  C   C18       1.0  0.32133733720750335  0.21878072706321414  0.4932054844788228  1.0000
  C   C19       1.0  0.715366429143763  0.8653544162668638  0.5960341267307548  1.0000
  C   C20       1.0  0.2846335710130327  0.13464558344503832  0.4039658733315663  1.0000
  C   C21       1.0  0.8906753617828529  0.8627109162455973  0.5937589716105188  1.0000
  C   C22       1.0  0.10932463837394285  0.13728908346630475  0.40624102845180243  1.0000
  C   C23       1.0  0.025791053029595435  0.7771401620134727  0.5020265028990473  1.0000
  C   C24       1.0  0.9742089471272005  0.2228598376984293  0.4979734971632739  1.0000
  N   N1        1.0  0.6353819066729006  0.26646677912228806  0.10584710759014243  1.0000
  N   N2        1.0  0.3646180934838951  0.7335332205896139  0.8941528924721788  1.0000
  O   O1        1.0  0.5634496363774172  0.4269889762517718  0.14702978201725167  1.0000
  O   O2        1.0  0.4365503637793787  0.5730110234601302  0.8529702180450696  1.0000
  F   F1        1.0  0.5067293283822661  0.7852774548042396  0.5140828128273816  1.0000
  F   F2        1.0  0.4932706717745297  0.2147225449076623  0.48591718723493954  1.0000
  F   F3        1.0  0.582930428953888  0.9463348144530692  0.6850240061868849  1.0000
  F   F4        1.0  0.4170695712029079  0.053665185258832876  0.31497599387543623  1.0000
  F   F5        1.0  0.9293832713707499  0.942468450839335  0.6803287010695948  1.0000
  F   F6        1.0  0.07061672878604588  0.05753154887256704  0.3196712989927265  1.0000
  F   F7        1.0  0.1937586899214772  0.7795640841461421  0.5038187587644299  1.0000
  F   F8        1.0  0.8062413102353185  0.22043591556575995  0.49618124129789126  1.0000
  I   I1        1.0  0.2156704598708566  0.5674877935469195  0.2825960127385427  1.0000
  I   I2        1.0  0.7843295397212477  0.43251220744646923  0.7174039873235599  1.0000
  I   I3        1.0  0.73317560003803  0.5677851166153276  0.29064278506169666  1.0000
  I   I4        1.0  0.26682439955407433  0.43221488437806094  0.7093572150004057  1.0000
