data_image0
_chemical_formula_structural       H28C48N4O4F16I8
_chemical_formula_sum              "H28 C48 N4 O4 F16 I8"
_cell_length_a       7.925674289385471
_cell_length_b       23.08558380136618
_cell_length_c       7.800168530325386
_cell_angle_alpha    90.0
_cell_angle_beta     91.92162835013369
_cell_angle_gamma    90.0

_space_group_name_H-M_alt    "P 1"
_space_group_IT_number       1

loop_
  _space_group_symop_operation_xyz
  'x, y, z'

loop_
  _atom_site_type_symbol
  _atom_site_label
  _atom_site_symmetry_multiplicity
  _atom_site_fract_x
  _atom_site_fract_y
  _atom_site_fract_z
  _atom_site_occupancy
  H   H1        1.0  0.7704831643636048  0.6379917981163807  0.030516628969574345  1.0000
  H   H2        1.0  0.22951683621172608  0.13799179814597015  0.46948337087029207  1.0000
  H   H3        1.0  0.22951683535776657  0.3620082018244404  0.9694833706150326  1.0000
  H   H4        1.0  0.7704831647713254  0.8620082017948509  0.5305166287130504  1.0000
  H   H5        1.0  0.844651873294913  0.8227317148841609  0.09826565260750615  1.0000
  H   H6        1.0  0.1553481272804179  0.32273171448057947  0.40173434723236034  1.0000
  H   H7        1.0  0.15534812647003457  0.17726828548983112  0.9017343482598451  1.0000
  H   H8        1.0  0.8446518737026334  0.6772682854602416  0.5982656523509822  1.0000
  H   H9        1.0  0.5570738217408159  0.8371900380035548  0.9672551780056652  1.0000
  H   H10       1.0  0.4429261783882759  0.3371900380331442  0.5327448213224178  1.0000
  H   H11       1.0  0.4429261779805555  0.16280996193726635  0.032744821578941756  1.0000
  H   H12       1.0  0.5570738213330955  0.6628099619076768  0.46725517826218915  1.0000
  H   H13       1.0  0.38683556752286713  0.7494565131584894  0.8707766974095937  1.0000
  H   H14       1.0  0.6131644326062247  0.24945651318807877  0.6292233019184891  1.0000
  H   H15       1.0  0.6131644321985043  0.2505434867823318  0.1292233021750131  1.0000
  H   H16       1.0  0.38683556711514666  0.750543487185913  0.3707766976661178  1.0000
  H   H17       1.0  0.004532595883289016  0.6832445917640846  0.246038433406129  1.0000
  H   H18       1.0  0.9954674034303619  0.18324459179367408  0.25396156643500195  1.0000
  H   H19       1.0  0.9954674038380825  0.3167554081767365  0.753961566178478  1.0000
  H   H20       1.0  0.004532596291009463  0.8167554081471471  0.746038433149605  1.0000
  H   H21       1.0  0.06149114024214233  0.7567767937047409  0.20888260812730494  1.0000
  H   H22       1.0  0.9385088603331885  0.25677679373433027  0.29111739171256146  1.0000
  H   H23       1.0  0.938508860740909  0.24322320623608026  0.7911173914560374  1.0000
  H   H24       1.0  0.06149113943175899  0.7432232062064907  0.7088826091547898  1.0000
  H   H25       1.0  0.09324630369237655  0.7030298323683517  0.05017220615853161  1.0000
  H   H26       1.0  0.9067536956212744  0.20302983239794112  0.44982779368259934  1.0000
  H   H27       1.0  0.906753696072571  0.29697016757246947  0.9498277947088197  1.0000
  H   H28       1.0  0.093246304100097  0.7969701675428801  0.5501722059020077  1.0000
  C   C1        1.0  0.7328620855546472  0.6832167232897356  0.019514046267108696  1.0000
  C   C2        1.0  0.2671379150206839  0.18321672331932506  0.48048595357275775  1.0000
  C   C3        1.0  0.2671379141667244  0.3167832766510855  0.9804859533174982  1.0000
  C   C4        1.0  0.7328620859623675  0.8167832770546668  0.5195140460105846  1.0000
  C   C5        1.0  0.8344972496848959  0.7294026148476048  0.07383663608752541  1.0000
  C   C6        1.0  0.165502749628755  0.2294026148771943  0.42616336375360553  1.0000
  C   C7        1.0  0.16550275003647544  0.2705973850932163  0.9261633634970815  1.0000
  C   C8        1.0  0.8344972501361925  0.7705973854967977  0.5738366371137458  1.0000
  C   C9        1.0  0.7702343342744526  0.785563529432025  0.055239411545927916  1.0000
  C   C10       1.0  0.22976566630087833  0.28556352946161445  0.44476058829393855  1.0000
  C   C11       1.0  0.2297656667085988  0.2144364705087961  0.9447605880374145  1.0000
  C   C12       1.0  0.7702343334640692  0.7144364704792067  0.5552394125734127  1.0000
  C   C13       1.0  0.6090144912194481  0.7938319055598447  0.9826474567946178  1.0000
  C   C14       1.0  0.3909855089096438  0.2938319051562635  0.5173525425334652  1.0000
  C   C15       1.0  0.3909855085019234  0.20616809481414705  0.017352542789989173  1.0000
  C   C16       1.0  0.6090144908117276  0.7061680947845577  0.4826474570511417  1.0000
  C   C17       1.0  0.5130571662591413  0.7468824820873547  0.9290562576190418  1.0000
  C   C18       1.0  0.48694283265184674  0.2468824821169441  0.5709437429930501  1.0000
  C   C19       1.0  0.4869428334622301  0.2531175178534665  0.0709437419655652  1.0000
  C   C20       1.0  0.5130571671131008  0.7531175178238771  0.42905625787430124  1.0000
  C   C21       1.0  0.007482643376478953  0.7176621801099761  0.1493441376356678  1.0000
  C   C22       1.0  0.9925173571988519  0.21766218013956545  0.35065586220419864  1.0000
  C   C23       1.0  0.9925173576065724  0.2823378198308451  0.8506558619476747  1.0000
  C   C24       1.0  0.007482642566095613  0.7823378198012557  0.6493441386631528  1.0000
  C   C25       1.0  0.26253893237828846  0.5607253024822335  0.40619917534995953  1.0000
  C   C26       1.0  0.7374610669353625  0.06072530251182291  0.09380082449117139  1.0000
  C   C27       1.0  0.7374610673430829  0.43927469745858766  0.5938008242346474  1.0000
  C   C28       1.0  0.26253893278600887  0.9392746974289982  0.9061991750934355  1.0000
  C   C29       1.0  0.264171630561844  0.5010076582648749  0.4418432417674717  1.0000
  C   C30       1.0  0.735828368751807  0.0010076582944644162  0.05815675807365919  1.0000
  C   C31       1.0  0.7358283691595274  0.4989923416759462  0.5581567578171351  1.0000
  C   C32       1.0  0.26417163101314056  0.9989923416463566  0.941843242793692  1.0000
  C   C33       1.0  0.20275544320282549  0.48183949930439796  0.5972677672734803  1.0000
  C   C34       1.0  0.7972445569698425  0.9818394992748085  0.9027322333373471  1.0000
  C   C35       1.0  0.7972445565621221  0.518160501069594  0.40273223359387106  1.0000
  C   C36       1.0  0.20275544275152882  0.018160500666012592  0.09726776624725988  1.0000
  C   C37       1.0  0.14168875506474307  0.5201585345781626  0.7185194358735324  1.0000
  C   C38       1.0  0.8583112451079249  0.02015853460775204  0.7814805647372948  1.0000
  C   C39       1.0  0.8583112447002046  0.4798414653626585  0.2814805649938188  1.0000
  C   C40       1.0  0.1416887546134465  0.979841465333069  0.21851943484731212  1.0000
  C   C41       1.0  0.13952176939542482  0.5793300509562392  0.6829189488739429  1.0000
  C   C42       1.0  0.860478230733667  0.0793300509858287  0.81708105045414  1.0000
  C   C43       1.0  0.8604782303259464  0.42066994941775265  0.317081050710664  1.0000
  C   C44       1.0  0.1395217689877044  0.9206699493881633  0.1829189491304669  1.0000
  C   C45       1.0  0.19983924855211388  0.59876503704368  0.5274235613756206  1.0000
  C   C46       1.0  0.800160751620554  0.09876503707326949  0.9725764392352066  1.0000
  C   C47       1.0  0.8001607512128337  0.40123496289714106  0.4725764394917306  1.0000
  C   C48       1.0  0.19983924810081727  0.9012349628675516  0.027423560349400286  1.0000
  N   N1        1.0  0.5758980909000597  0.6921554870557093  0.9478221392303422  1.0000
  N   N2        1.0  0.4241019092726083  0.19215548708529873  0.552177861380485  1.0000
  N   N3        1.0  0.4241019088648879  0.30784451288511183  0.052177861637009076  1.0000
  N   N4        1.0  0.5758980917540192  0.8078445128555223  0.4478221394856017  1.0000
  O   O1        1.0  0.4816785433524592  0.6478848751970862  0.8966133612994135  1.0000
  O   O2        1.0  0.5183214568202088  0.14788487522667557  0.6033866393114139  1.0000
  O   O3        1.0  0.5183214576741683  0.352115124743735  0.10338663956667342  1.0000
  O   O4        1.0  0.4816785429011625  0.8521151247141455  0.39661336027319305  1.0000
  F   F1        1.0  0.1992509934357929  0.4245062981435215  0.6367850151900825  1.0000
  F   F2        1.0  0.8007490067368751  0.924506298113932  0.8632149854207449  1.0000
  F   F3        1.0  0.8007490063291546  0.5754937017972996  0.3632149856772689  1.0000
  F   F4        1.0  0.19925099298449622  0.07549370182688912  0.13678501416386202  1.0000
  F   F5        1.0  0.08463111869258494  0.5001254457908376  0.8673261886086325  1.0000
  F   F6        1.0  0.9153688814365069  0.00012544582042705885  0.6326738107194504  1.0000
  F   F7        1.0  0.9153688810287863  0.4998745541499835  0.13267381097597442  1.0000
  F   F8        1.0  0.08463111954654445  0.9998745545535648  0.36732618886389207  1.0000
  F   F9        1.0  0.07874625852126017  0.6172951770514318  0.7973467349523258  1.0000
  F   F10       1.0  0.9212537403461518  0.11729517708102118  0.7026532643770216  1.0000
  F   F11       1.0  0.9212537412001112  0.38270482288938934  0.20265326463228103  1.0000
  F   F12       1.0  0.07874625937521969  0.8827048228598  0.2973467352075854  1.0000
  F   F13       1.0  0.19630126093041192  0.6569508239641091  0.4988559328607433  1.0000
  F   F14       1.0  0.803698739644919  0.15695082399369847  0.0011440669791231454  1.0000
  F   F15       1.0  0.8036987387909595  0.3430491759767121  0.5011440667238636  1.0000
  F   F16       1.0  0.19630126138170853  0.8430491759471226  0.9988559338869637  1.0000
  I   I1        1.0  0.35617118152020666  0.5955789200871902  0.17844654323757264  1.0000
  I   I2        1.0  0.6438288190551241  0.09557892011677964  0.32155345660229384  1.0000
  I   I3        1.0  0.6438288182447409  0.40442107985363096  0.8215534576297787  1.0000
  I   I4        1.0  0.3561711819279271  0.9044210798240414  0.6784465429810487  1.0000
  I   I5        1.0  0.36406430055938815  0.4387620836082375  0.27542030532889317  1.0000
  I   I6        1.0  0.6359356987542627  0.938762083578648  0.22457969451223772  1.0000
  I   I7        1.0  0.6359356991619832  0.5612379163325836  0.7245796942557137  1.0000
  I   I8        1.0  0.3640643009671086  0.06123791636217309  0.7754203050723693  1.0000
