data_image0
_chemical_formula_structural       H20C44N4O4F12I12
_chemical_formula_sum              "H20 C44 N4 O4 F12 I12"
_cell_length_a       12.47233579724237
_cell_length_b       7.356713385544126
_cell_length_c       15.461089279012146
_cell_angle_alpha    90.0
_cell_angle_beta     97.33177022534687
_cell_angle_gamma    90.0

_space_group_name_H-M_alt    "P 1"
_space_group_IT_number       1

loop_
  _space_group_symop_operation_xyz
  'x, y, z'

loop_
  _atom_site_type_symbol
  _atom_site_label
  _atom_site_symmetry_multiplicity
  _atom_site_fract_x
  _atom_site_fract_y
  _atom_site_fract_z
  _atom_site_occupancy
  H   H1        1.0  0.28980738978351106  0.7024125732768097  0.31056547511029425  1.0000
  H   H2        1.0  0.21019260987437322  0.20241257365361695  0.18943452481891676  1.0000
  H   H3        1.0  0.7101926103338398  0.2975874259695758  0.6894345247469226  1.0000
  H   H4        1.0  0.7898073894413954  0.7975874255927686  0.8105654750395054  1.0000
  H   H5        1.0  0.32406194097980556  0.03835934407265585  0.32296109973790427  1.0000
  H   H6        1.0  0.17593805867807877  0.5383593436958486  0.17703890019130678  1.0000
  H   H7        1.0  0.6759380591375455  0.9616406551737297  0.6770389001193127  1.0000
  H   H8        1.0  0.82406194063769  0.4616406555505369  0.8229610996671154  1.0000
  H   H9        1.0  0.5071279424817973  0.14796092941977385  0.3895335904800524  1.0000
  H   H10       1.0  0.9928720574383099  0.6479609290429666  0.11046640954276646  1.0000
  H   H11       1.0  0.4928720569386145  0.8520390711859143  0.6104664100304853  1.0000
  H   H12       1.0  0.00712794267904118  0.3520390715627216  0.8895335903144503  1.0000
  H   H13       1.0  0.6493097796411227  0.913365440225454  0.4400812629039804  1.0000
  H   H14       1.0  0.8506902202789844  0.4133654406022612  0.05991873711883844  1.0000
  H   H15       1.0  0.3506902204762283  0.08663455902093158  0.5599187369532364  1.0000
  H   H16       1.0  0.14930977914142737  0.5866345586441243  0.9400812633916993  1.0000
  H   H17       1.0  0.6002738050070214  0.5813339008698761  0.42387399625904754  1.0000
  H   H18       1.0  0.8997261957146682  0.08133389988738078  0.07612600376256613  1.0000
  H   H19       1.0  0.39972619511032964  0.418666099735812  0.5761260035981693  1.0000
  H   H20       1.0  0.10027380440268284  0.9186660993590048  0.9238739960946507  1.0000
  C   C1        1.0  0.36691193115180165  0.759145373391073  0.33843614627778856  1.0000
  C   C2        1.0  0.13308806861072583  0.2591453737678802  0.16156385430353815  1.0000
  C   C3        1.0  0.6330880682686102  0.2408546272146152  0.6615638542327491  1.0000
  C   C4        1.0  0.8669119316112683  0.740854626837808  0.8384361462057943  1.0000
  C   C5        1.0  0.38827906143642493  0.9432717650297234  0.34610236787882603  1.0000
  C   C6        1.0  0.11172093822145937  0.44327176404722807  0.15389763205038498  1.0000
  C   C7        1.0  0.6117209378793437  0.0567282355759647  0.653897631979596  1.0000
  C   C8        1.0  0.8882790618958917  0.5567282351991575  0.8461023678068319  1.0000
  C   C9        1.0  0.48985322750343857  0.0032087752727169784  0.3831164662802745  1.0000
  C   C10       1.0  0.01014677215444572  0.5032087748959098  0.11688353364893653  1.0000
  C   C11       1.0  0.5101467726139124  0.9967912253329712  0.6168835335769424  1.0000
  C   C12       1.0  0.9898532279629052  0.4967912257097784  0.8831164662082803  1.0000
  C   C13       1.0  0.5684448579024923  0.8738276147378451  0.4113249973610653  1.0000
  C   C14       1.0  0.9315551420176148  0.3738276151146523  0.08867500266175356  1.0000
  C   C15       1.0  0.4315551423195019  0.12617238450854049  0.5886750031482673  1.0000
  C   C16       1.0  0.06844485729815379  0.6261723841317333  0.9113249971966685  1.0000
  C   C17       1.0  0.5441725866079704  0.6905950855694821  0.40341068797801866  1.0000
  C   C18       1.0  0.9558274133121367  0.19059508594628938  0.0965893120448002  1.0000
  C   C19       1.0  0.45582741350938066  0.30940491367690337  0.5965893118791982  1.0000
  C   C20       1.0  0.044172586909857495  0.8094049146593988  0.9034106884645323  1.0000
  C   C21       1.0  0.4657903198778316  0.2994400752826212  0.06458904929325966  1.0000
  C   C22       1.0  0.034209679780052675  0.799440074905814  0.43541095063595137  1.0000
  C   C23       1.0  0.5342096803441626  0.700559925323067  0.9354109512160729  1.0000
  C   C24       1.0  0.9657903203372983  0.20055992569987424  0.5645890492212654  1.0000
  C   C25       1.0  0.5644196102838929  0.2506845249162301  0.03750422772678635  1.0000
  C   C26       1.0  0.9355803896362141  0.7506845245394229  0.46249577229603256  1.0000
  C   C27       1.0  0.4355803898334581  0.7493154743301554  0.9624957721304306  1.0000
  C   C28       1.0  0.0644196096795544  0.24931547470696266  0.5375042275623896  1.0000
  C   C29       1.0  0.5744260336794128  0.1969995287362697  0.9523026092590918  1.0000
  C   C30       1.0  0.9255739660958225  0.6969995283594624  0.547697390527336  1.0000
  C   C31       1.0  0.42557396643793816  0.8030004718694185  0.047697390598125014  1.0000
  C   C32       1.0  0.07442603402152856  0.30300047088692306  0.4523026093298808  1.0000
  C   C33       1.0  0.480035652008115  0.19035734119420525  0.8933354576333118  1.0000
  C   C34       1.0  0.01996434841112305  0.6903573408173981  0.6066645427104187  1.0000
  C   C35       1.0  0.5199643482138792  0.809642659411483  0.10666454287602074  1.0000
  C   C36       1.0  0.980035651706228  0.3096426584289875  0.39333545714679813  1.0000
  C   C37       1.0  0.37919615484417796  0.24013083389537795  0.915829470750168  1.0000
  C   C38       1.0  0.12080384557506013  0.7401308335185708  0.5841705295935625  1.0000
  C   C39       1.0  0.6208038453778163  0.7598691667103102  0.08417052975916457  1.0000
  C   C40       1.0  0.8791961545422909  0.25986916708711744  0.4158294702636543  1.0000
  C   C41       1.0  0.37509379929842473  0.29633773340739644  0.0016006466797884222  1.0000
  C   C42       1.0  0.12490620116104195  0.7963377330305892  0.49839935324821744  1.0000
  C   C43       1.0  0.6249062008189262  0.7036622671982917  0.9983993531774285  1.0000
  C   C44       1.0  0.8750937989563091  0.20366226757509898  0.5016006466089995  1.0000
  N   N1        1.0  0.44402310960089414  0.6353017665719917  0.3678080731207624  1.0000
  N   N2        1.0  0.05597689005699021  0.13530176558949616  0.13219192680844863  1.0000
  N   N3        1.0  0.5559768906211001  0.3646982340336966  0.6321919273885702  1.0000
  N   N4        1.0  0.9440231100603608  0.8646982336568894  0.8678080730487683  1.0000
  O   O1        1.0  0.4226050859560483  0.45835107789109547  0.3609006572050692  1.0000
  O   O2        1.0  0.07739491370183606  0.9583510775142882  0.13909934272414184  1.0000
  O   O3        1.0  0.5773949141613028  0.5416489227145928  0.6390993426521476  1.0000
  O   O4        1.0  0.9226050856139326  0.04164892309139997  0.8609006571342802  1.0000
  F   F1        1.0  0.6548181560841219  0.25597516191134273  0.09658488882055476  1.0000
  F   F2        1.0  0.8451818438359853  0.7559751628938381  0.4034151112022641  1.0000
  F   F3        1.0  0.3451818440332292  0.7440248373350429  0.903415111036662  1.0000
  F   F4        1.0  0.15481815628136567  0.24402483771185002  0.5965848886549527  1.0000
  F   F5        1.0  0.4863777575798025  0.1340919971054489  0.8108606056466083  1.0000
  F   F6        1.0  0.013622242037853201  0.6340919967286417  0.6891393946983275  1.0000
  F   F7        1.0  0.5136222417359662  0.8659080035002393  0.18913939421181378  1.0000
  F   F8        1.0  0.9863777581841411  0.36590800251774386  0.3108606058110051  1.0000
  F   F9        1.0  0.27848182170336816  0.3496500509391187  0.024486962424957594  1.0000
  F   F10       1.0  0.22151817875609858  0.8496500505623115  0.47551303750304824  1.0000
  F   F11       1.0  0.7215181784139829  0.6503499483072668  0.9755130374322593  1.0000
  F   F12       1.0  0.7784818213612525  0.15034994868407406  0.5244869623541687  1.0000
  I   I1        1.0  0.45132270882746894  0.3661984025765797  0.19556050787317714  1.0000
  I   I2        1.0  0.04867729083041534  0.8661984021997724  0.30443949205603393  1.0000
  I   I3        1.0  0.5486772904882996  0.6338015980291085  0.804439491985245  1.0000
  I   I4        1.0  0.9513227092869357  0.1338015970466131  0.695560507801183  1.0000
  I   I5        1.0  0.7250088283385479  0.13133207308286876  0.9118563179451128  1.0000
  I   I6        1.0  0.77499117223827  0.6313320727060615  0.58814368184011  1.0000
  I   I7        1.0  0.27499117177880317  0.8686679275228194  0.08814368191210409  1.0000
  I   I8        1.0  0.22500882787908114  0.368667926540324  0.4118563180171069  1.0000
  I   I9        1.0  0.24070673795059858  0.22673678755484458  0.8244940726332967  1.0000
  I   I10       1.0  0.25929326156241395  0.7267367871780374  0.6755059270595234  1.0000
  I   I11       1.0  0.7592932621667525  0.7732632130508436  0.1755059272239202  1.0000
  I   I12       1.0  0.7407067377533547  0.2732632120683482  0.32449407279889864  1.0000
