data_image0
_chemical_formula_structural       H104C112N4O8P4
_chemical_formula_sum              "H104 C112 N4 O8 P4"
_cell_length_a       10.72160857991552
_cell_length_b       15.544353631577065
_cell_length_c       13.754433829115468
_cell_angle_alpha    90.0
_cell_angle_beta     101.9476487763236
_cell_angle_gamma    90.0

_space_group_name_H-M_alt    "P 1"
_space_group_IT_number       1

loop_
  _space_group_symop_operation_xyz
  'x, y, z'

loop_
  _atom_site_type_symbol
  _atom_site_label
  _atom_site_symmetry_multiplicity
  _atom_site_fract_x
  _atom_site_fract_y
  _atom_site_fract_z
  _atom_site_occupancy
  H   H1        1.0  0.9780684354317896  0.13042145322026602  0.97906899878041  1.0000
  H   H2        1.0  0.5219315638770257  0.6304214534911983  0.5209310013413304  1.0000
  H   H3        1.0  0.021931563669743866  0.8695785466782782  0.020931000803214986  1.0000
  H   H4        1.0  0.4780684354138439  0.3695785464073459  0.47906899898540384  1.0000
  H   H5        1.0  0.09966944884270486  0.1823985736042693  0.8609222954614842  1.0000
  H   H6        1.0  0.40033055106429083  0.6823985732318812  0.6390777043036722  1.0000
  H   H7        1.0  0.9003305511931862  0.8176014262942749  0.13907770412852813  1.0000
  H   H8        1.0  0.5996694489716002  0.317601426666663  0.36092229528634023  1.0000
  H   H9        1.0  0.07165152452181782  0.12907186220495456  0.7429855219936924  1.0000
  H   H10       1.0  0.4283484753851779  0.6290718618325665  0.7570144777714638  1.0000
  H   H11       1.0  0.9283484757034096  0.8709281383369101  0.25701447833942914  1.0000
  H   H12       1.0  0.5716515246507132  0.3709281380659778  0.24298552181854852  1.0000
  H   H13       1.0  0.9942558432477132  0.22754146256779106  0.7556874969403715  1.0000
  H   H14       1.0  0.505744156061102  0.7275414621954029  0.744312503181369  1.0000
  H   H15       1.0  0.005744156043156458  0.7724585373307531  0.24431250338636273  1.0000
  H   H16       1.0  0.4942558441641254  0.2724585377031412  0.2556874971517527  1.0000
  H   H17       1.0  0.6615835876340305  0.9286486638258152  0.04945680719405653  1.0000
  H   H18       1.0  0.838416412530756  0.4286486635548829  0.4505431922208118  1.0000
  H   H19       1.0  0.3384164124018605  0.07135133607272896  0.9505431923959556  1.0000
  H   H20       1.0  0.1615835875051351  0.5713513363436613  0.5494568073692004  1.0000
  H   H21       1.0  0.6338659383747569  0.7722686297881196  0.02199047635970371  1.0000
  H   H22       1.0  0.8661340617900296  0.2722686301605077  0.4780095230551646  1.0000
  H   H23       1.0  0.3661340616611342  0.22773137011042466  0.9780095232303085  1.0000
  H   H24       1.0  0.13386593824586143  0.7277313697380366  0.5219904765348476  1.0000
  H   H25       1.0  0.7028552306913053  0.7028870507555162  0.8766088749344985  1.0000
  H   H26       1.0  0.7971447695518676  0.20288705112790423  0.6233911251936294  1.0000
  H   H27       1.0  0.29714476934458584  0.29711294914302805  0.12339112465551391  1.0000
  H   H28       1.0  0.2028552306733597  0.7971129494139604  0.37660887513949226  1.0000
  H   H29       1.0  0.7983386718504923  0.791208289614305  0.7625569109092644  1.0000
  H   H30       1.0  0.7016613283926806  0.29120828998669307  0.7374430892188634  1.0000
  H   H31       1.0  0.20166132818539875  0.2087917102842392  0.23744308868074793  1.0000
  H   H32       1.0  0.2983386718325468  0.708791709911851  0.2625569111142582  1.0000
  H   H33       1.0  0.8260295848136606  0.9494883164532455  0.7894702369348823  1.0000
  H   H34       1.0  0.6739704152401761  0.44948831682563356  0.7105297624501362  1.0000
  H   H35       1.0  0.17397041522223064  0.0505116834452987  0.21052976265513004  1.0000
  H   H36       1.0  0.3260295847957149  0.550511683716231  0.2894702371398761  1.0000
  H   H37       1.0  0.9519259343959071  0.018270127966149907  0.11655724829694476  1.0000
  H   H38       1.0  0.5480740659582156  0.5182701275937618  0.3834427518610328  1.0000
  H   H39       1.0  0.048074065829320174  0.9817298719323942  0.8834427520361768  1.0000
  H   H40       1.0  0.45192593407767545  0.4817298723047824  0.6165572477289795  1.0000
  H   H41       1.0  0.9539040780843291  0.02998945990607296  0.29684311675365005  1.0000
  H   H42       1.0  0.5460959220804575  0.5299894595336849  0.20315688266121826  1.0000
  H   H43       1.0  0.04609592195156206  0.9700105399924713  0.7031568828363622  1.0000
  H   H44       1.0  0.45390407795543364  0.47001054036485934  0.7968431169287941  1.0000
  H   H45       1.0  0.7721948403776576  0.09680221099340343  0.3543078974748801  1.0000
  H   H46       1.0  0.7278051599764651  0.5968022106210153  0.1456921026830975  1.0000
  H   H47       1.0  0.22780515965823334  0.9031977889051408  0.6456921021151321  1.0000
  H   H48       1.0  0.2721948402487623  0.40319778927752886  0.854307897650024  1.0000
  H   H49       1.0  0.5876577229764288  0.15524444420113012  0.23013963476912144  1.0000
  H   H50       1.0  0.9123422773776939  0.655244443828742  0.2698603653888562  1.0000
  H   H51       1.0  0.4123422772487986  0.8447555563407345  0.7698603655640002  1.0000
  H   H52       1.0  0.08765772284753333  0.3447555560698022  0.7301396349442653  1.0000
  H   H53       1.0  0.5846195657578747  0.1437098565142049  0.05042604669803518  1.0000
  H   H54       1.0  0.915380434406912  0.6437098567851373  0.44957395271683315  1.0000
  H   H55       1.0  0.4153804342780164  0.8562901433843393  0.9495739528919772  1.0000
  H   H56       1.0  0.08461956562897927  0.35629014311340695  0.5504260468731792  1.0000
  H   H57       1.0  0.5209534490116757  0.9988203020844937  0.8269646120734049  1.0000
  H   H58       1.0  0.9790465512314972  0.49882030181356135  0.6730353880547226  1.0000
  H   H59       1.0  0.47904655121355166  0.0011796984573709509  0.17303538825971657  1.0000
  H   H60       1.0  0.020953448804393888  0.5011796980849829  0.3269646115352896  1.0000
  H   H61       1.0  0.32542202361876527  0.07505649624632421  0.7398203136617107  1.0000
  H   H62       1.0  0.17457797741192438  0.5750564965172565  0.760179686852942  1.0000
  H   H63       1.0  0.674577976606462  0.92494350365222  0.26017968667141084  1.0000
  H   H64       1.0  0.825422022813303  0.4249435033812877  0.2398203134801795  1.0000
  H   H65       1.0  0.3178136267564417  0.23506144073932092  0.7413856314364551  1.0000
  H   H66       1.0  0.18218637315055394  0.7350614410102532  0.7586143683287011  1.0000
  H   H67       1.0  0.6821863732794493  0.7649385591592233  0.25861436815355715  1.0000
  H   H68       1.0  0.8178136261403157  0.264938558888291  0.24138563199803317  1.0000
  H   H69       1.0  0.5068488381617854  0.3184641090475347  0.826797225753121  1.0000
  H   H70       1.0  0.9931511620813875  0.8184641086751466  0.6732027743750068  1.0000
  H   H71       1.0  0.49315116206344195  0.6815358914943299  0.17320277458000055  1.0000
  H   H72       1.0  0.006848838143839917  0.18153589122339764  0.3267972259581149  1.0000
  H   H73       1.0  0.704000673237509  0.2427122844359291  0.9098637675300552  1.0000
  H   H74       1.0  0.7959993260713062  0.7427122847068615  0.5901362325916854  1.0000
  H   H75       1.0  0.2959993267983821  0.7572877154626151  0.09013623205995717  1.0000
  H   H76       1.0  0.2040006732195635  0.2572877151916828  0.409863767735049  1.0000
  H   H77       1.0  0.8485230592383188  0.05245585048603103  0.6289048787025261  1.0000
  H   H78       1.0  0.651476941004854  0.552455850113643  0.8710951214256016  1.0000
  H   H79       1.0  0.15147694079757212  0.9475441494125132  0.37109512088748625  1.0000
  H   H80       1.0  0.3485230592203734  0.4475441497849013  0.12890487890751992  1.0000
  H   H81       1.0  0.9680131782338985  0.04705935141066296  0.5578924846381019  1.0000
  H   H82       1.0  0.5319868210749167  0.5470593516815953  0.9421075154836386  1.0000
  H   H83       1.0  0.0319868210569711  0.9529406484878813  0.4421075156886324  1.0000
  H   H84       1.0  0.46801317915031077  0.45294064821694896  0.05789248484948308  1.0000
  H   H85       1.0  0.6709027125697837  0.019143850368631178  0.6439000876758618  1.0000
  H   H86       1.0  0.8290972874840529  0.5191438506395635  0.8560999117091566  1.0000
  H   H87       1.0  0.32909728746610734  0.980856149529913  0.35609991191415047  1.0000
  H   H88       1.0  0.17090271255183817  0.48085614925898074  0.14390008788085562  1.0000
  H   H89       1.0  0.46288578903230027  0.9613622267086745  0.6579023175138111  1.0000
  H   H90       1.0  0.03711421087469549  0.4613622270810627  0.8420976822513451  1.0000
  H   H91       1.0  0.5371142111929271  0.03863777318986957  0.3420976828193104  1.0000
  H   H92       1.0  0.9628857891611956  0.5386377728174815  0.1579023173386672  1.0000
  H   H93       1.0  0.3690779515270643  0.8355607468692325  0.5551693400190678  1.0000
  H   H94       1.0  0.13092204837993138  0.33556074724162066  0.9448306597460884  1.0000
  H   H95       1.0  0.6309220486981632  0.16443925302931162  0.4448306603140537  1.0000
  H   H96       1.0  0.8690779507216021  0.6644392526569235  0.05516933983753667  1.0000
  H   H97       1.0  0.4884992893538566  0.7683210233803918  0.4376235856666417  1.0000
  H   H98       1.0  0.011500709729731221  0.2683210237527799  0.06237641412197716  1.0000
  H   H99       1.0  0.5115007097476767  0.23167897651815242  0.5623764139169833  1.0000
  H   H100      1.0  0.9884992893718021  0.7316789761457643  0.9376235854616479  1.0000
  H   H101      1.0  0.7009900986325666  0.8268673393977576  0.4247799706206014  1.0000
  H   H102      1.0  0.7990099007871984  0.32686733912682536  0.07522002953098893  1.0000
  H   H103      1.0  0.29900990065830296  0.17313266050078654  0.5752200297061328  1.0000
  H   H104      1.0  0.20099009924869266  0.6731326607717187  0.9247799700590232  1.0000
  C   C1        1.0  0.9054374124845772  0.1082646959717462  0.9168241164887444  1.0000
  C   C2        1.0  0.5945625868242381  0.608264695599358  0.583175883632996  1.0000
  C   C3        1.0  0.09456258755131401  0.891735303926798  0.08317588310126785  1.0000
  C   C4        1.0  0.40543741246663145  0.39173530429918607  0.41682411669373826  1.0000
  C   C5        1.0  0.9136570320247372  0.1205444918721843  0.817505351320159  1.0000
  C   C6        1.0  0.5863429680290994  0.6205444914997962  0.6824946480648596  1.0000
  C   C7        1.0  0.08634296801115379  0.8794555080263599  0.18249464826985343  1.0000
  C   C8        1.0  0.4136570320067917  0.379455508398748  0.3175053515251527  1.0000
  C   C9        1.0  0.027736297013417822  0.16731274208254981  0.7941824097823532  1.0000
  C   C10       1.0  0.47226370289357783  0.6673127423534821  0.7058175899828031  1.0000
  C   C11       1.0  0.9722637030224732  0.8326872578159944  0.2058175898076591  1.0000
  C   C12       1.0  0.5277362973316495  0.33268725818838246  0.2941824103503185  1.0000
  C   C13       1.0  0.7462495938186371  0.9493147331660949  0.9212566835118468  1.0000
  C   C14       1.0  0.7537504064245357  0.4493147328951626  0.5787433166162809  1.0000
  C   C15       1.0  0.253750406217254  0.05068526673244927  0.07874331607816545  1.0000
  C   C16       1.0  0.24624959380069156  0.5506852670033815  0.4212566837168408  1.0000
  C   C17       1.0  0.6914569607726959  0.8991637266670933  0.9862301587381784  1.0000
  C   C18       1.0  0.808543039470477  0.39916372639616104  0.5137698413899493  1.0000
  C   C19       1.0  0.3085430394525315  0.10083627323145083  0.013769841594943126  1.0000
  C   C20       1.0  0.191456960565414  0.6008362735023831  0.486230158200063  1.0000
  C   C21       1.0  0.6761003246603078  0.8106632034156529  0.970755002037023  1.0000
  C   C22       1.0  0.8238996746485073  0.31066320378804096  0.5292449980847175  1.0000
  C   C23       1.0  0.3238996744412255  0.18933679648289137  0.02924499754660207  1.0000
  C   C24       1.0  0.1761003246423623  0.6893367961105032  0.47075500224201683  1.0000
  C   C25       1.0  0.714667146695962  0.7718408230000334  0.8902824802172136  1.0000
  C   C26       1.0  0.7853328524235168  0.27184082272910115  0.6097175191614174  1.0000
  C   C27       1.0  0.2853328524055714  0.22815917689851078  0.10971751936641139  1.0000
  C   C28       1.0  0.21466714667801645  0.7281591771694431  0.3902824804222075  1.0000
  C   C29       1.0  0.7688732646388071  0.821826517382436  0.825342825912994  1.0000
  C   C30       1.0  0.7311267356043659  0.32182651775482407  0.6746571742151338  1.0000
  C   C31       1.0  0.23112673558642033  0.17817348251610826  0.17465717442012757  1.0000
  C   C32       1.0  0.2688732644315252  0.6781734821437201  0.3253428253748786  1.0000
  C   C33       1.0  0.7852788208781891  0.9101252818425923  0.8404562692099119  1.0000
  C   C34       1.0  0.7147211791756474  0.41012528157166006  0.6595437301751066  1.0000
  C   C35       1.0  0.2147211791577018  0.08987471805595185  0.1595437303801004  1.0000
  C   C36       1.0  0.2852788208602437  0.5898747183268842  0.3404562694149057  1.0000
  C   C37       1.0  0.7683905913690273  0.08071796935005154  0.07169891782631424  1.0000
  C   C38       1.0  0.7316094080507377  0.5807179696209839  0.42830108232527614  1.0000
  C   C39       1.0  0.2316094088562  0.9192820305484927  0.9283010825068073  1.0000
  C   C40       1.0  0.268390591240132  0.41928203027756034  0.5716989180014581  1.0000
  C   C41       1.0  0.8728636134122717  0.04936230982556156  0.14154724903681787  1.0000
  C   C42       1.0  0.6271363869418511  0.5493623094531734  0.3584527511211598  1.0000
  C   C43       1.0  0.12713638681295572  0.9506376900729827  0.8584527512963037  1.0000
  C   C44       1.0  0.3728636132833762  0.4506376904453708  0.6415472492119617  1.0000
  C   C45       1.0  0.8736048168363684  0.05543553951638802  0.2426906981285042  1.0000
  C   C46       1.0  0.6263951835177545  0.5554355397873203  0.25730930202947344  1.0000
  C   C47       1.0  0.12639518319952275  0.9445644603821561  0.7573093014615081  1.0000
  C   C48       1.0  0.3736048167074729  0.4445644607545443  0.7426906983036481  1.0000
  C   C49       1.0  0.7709048058252249  0.09306722777209663  0.2749327267770148  1.0000
  C   C50       1.0  0.7290951945288978  0.5930672280430289  0.22506727338096283  1.0000
  C   C51       1.0  0.2290951944000025  0.9069327721264476  0.7250672735561069  1.0000
  C   C52       1.0  0.27090480550699325  0.40693277185551524  0.7749327262090495  1.0000
  C   C53       1.0  0.6678699486030124  0.12551752399897317  0.2055746306949976  1.0000
  C   C54       1.0  0.8321300508167527  0.6255175236265851  0.29442536945659276  1.0000
  C   C55       1.0  0.332130050498521  0.8744824758995711  0.7944253688886275  1.0000
  C   C56       1.0  0.1678699494084747  0.37448247627195913  0.7055746308765289  1.0000
  C   C57       1.0  0.6660580635346771  0.11922983251198505  0.10398623238331449  1.0000
  C   C58       1.0  0.8339419366301093  0.6192298327829174  0.3960137670315539  1.0000
  C   C59       1.0  0.333941936501214  0.8807701673865591  0.8960137672066978  1.0000
  C   C60       1.0  0.1660580634057817  0.38077016711562683  0.6039862325584585  1.0000
  C   C61       1.0  0.6245883365236926  0.11592359789984918  0.8732533395493728  1.0000
  C   C62       1.0  0.8754116637194801  0.6159235975274611  0.6267466605787547  1.0000
  C   C63       1.0  0.3754116637015347  0.8840764019986951  0.1267466607837487  1.0000
  C   C64       1.0  0.12458833631641086  0.38407640237108315  0.37325333901125746  1.0000
  C   C65       1.0  0.5179821216597171  0.06881175604671827  0.8260131130845293  1.0000
  C   C66       1.0  0.9820178785834557  0.5688117563176506  0.6739868870435982  1.0000
  C   C67       1.0  0.48201787856551015  0.931188243851826  0.17398688724859215  1.0000
  C   C68       1.0  0.0179821216417716  0.4311882442242141  0.3260131132895232  1.0000
  C   C69       1.0  0.408010067483466  0.11162420073069075  0.7778976102182384  1.0000
  C   C70       1.0  0.0919899324235296  0.6116242010016231  0.7221023895469177  1.0000
  C   C71       1.0  0.591989932552425  0.8883757991678535  0.22210238937177382  1.0000
  C   C72       1.0  0.9080100678016978  0.38837579889692114  0.27789761078620384  1.0000
  C   C73       1.0  0.40390536802473836  0.2014304154557716  0.778347786748488  1.0000
  C   C74       1.0  0.09609463188225734  0.701430415726704  0.7216522130166682  1.0000
  C   C75       1.0  0.596094631076795  0.7985695844427726  0.22165221283513692  1.0000
  C   C76       1.0  0.9039053683429701  0.2985695848151607  0.2783477873164535  1.0000
  C   C77       1.0  0.5100758553645633  0.2484406403464068  0.8262863650125718  1.0000
  C   C78       1.0  0.9899241446892734  0.7484406406173391  0.6737136343724467  1.0000
  C   C79       1.0  0.48992414467132783  0.7515593595521375  0.17371363457744055  1.0000
  C   C80       1.0  0.01007585534661775  0.2515593592812051  0.32628636521756554  1.0000
  C   C81       1.0  0.6207143819511229  0.2060640188661884  0.8731959272238662  1.0000
  C   C82       1.0  0.87928561829205  0.7060640191371207  0.6268040729042614  1.0000
  C   C83       1.0  0.3792856182741044  0.7939359810323559  0.12680407310925532  1.0000
  C   C84       1.0  0.12071438174384112  0.2939359814047439  0.3731959266857508  1.0000
  C   C85       1.0  0.8241700361862655  0.9600086850627062  0.5143312725179854  1.0000
  C   C86       1.0  0.6758299640569073  0.4600086847917739  0.9856687276101426  1.0000
  C   C87       1.0  0.1758299640389618  0.03999131483583799  0.48566872781513626  1.0000
  C   C88       1.0  0.32417003616831996  0.5399913151067702  0.01433127272297916  1.0000
  C   C89       1.0  0.7000751471030725  0.9261628415834864  0.5323484930465447  1.0000
  C   C90       1.0  0.7999248531401003  0.4261628419558745  0.9676515070815832  1.0000
  C   C91       1.0  0.29992485312215483  0.07383715831505784  0.46765150728657695  1.0000
  C   C92       1.0  0.20007514689579076  0.5738371579426698  0.03234849250842924  1.0000
  C   C93       1.0  0.6330799658012187  0.9636387414379919  0.599039559016127  1.0000
  C   C94       1.0  0.8669200344419542  0.4636387411670595  0.9009604411120007  1.0000
  C   C95       1.0  0.3669200342346724  0.0363612584605524  0.40096044057388525  1.0000
  C   C96       1.0  0.13307996578327316  0.5363612587314847  0.09903955922112087  1.0000
  C   C97       1.0  0.515041358723624  0.9304436461493851  0.6075233932686382  1.0000
  C   C98       1.0  0.9849586415195488  0.43044364652177325  0.8924766068594895  1.0000
  C   C99       1.0  0.48495864131226707  0.0695563537491591  0.39247660632137404  1.0000
  C   C100      1.0  0.015041358705678425  0.569556353376771  0.10752339347363211  1.0000
  C   C101      1.0  0.4625100522567619  0.8603362781732593  0.5498663107059117  1.0000
  C   C102      1.0  0.03748994858459149  0.3603362785456475  0.9501336890656317  1.0000
  C   C103      1.0  0.5374899479684654  0.13966372172528485  0.45013368962720984  1.0000
  C   C104      1.0  0.9625100514512995  0.6396637213528967  0.04986631052438058  1.0000
  C   C105      1.0  0.5291380761451613  0.8224484821311251  0.4838510697580606  1.0000
  C   C106      1.0  0.9708619232746037  0.3224484818601928  0.016148930393529784  1.0000
  C   C107      1.0  0.47086192408006605  0.17755151776741906  0.5161489305750611  1.0000
  C   C108      1.0  0.02913807601626584  0.6775515180383513  0.9838510699332046  1.0000
  C   C109      1.0  0.6473904211550758  0.8550241724429665  0.4758157336149855  1.0000
  C   C110      1.0  0.8526095782646892  0.35502417281535453  0.02418426653660485  1.0000
  C   C111      1.0  0.35260957907015156  0.14497582745557774  0.5241842667181361  1.0000
  C   C112      1.0  0.14739042083684412  0.6449758277265101  0.9758157330470202  1.0000
  N   N1        1.0  0.8787117095974245  0.02753186141690862  0.5678944450890596  1.0000
  N   N2        1.0  0.6212882897113908  0.5275318616878409  0.9321055550326809  1.0000
  N   N3        1.0  0.12128828969344521  0.9724681384816356  0.4321055552376747  1.0000
  N   N4        1.0  0.37871170939014265  0.47246813821070327  0.06789444455094422  1.0000
  O   O1        1.0  0.82683498032056  0.09418957292799682  0.7451644036858687  1.0000
  O   O2        1.0  0.6731650199226129  0.5941895731989291  0.754835596442259  1.0000
  O   O3        1.0  0.17316501990466737  0.9058104269705474  0.25483559664725286  1.0000
  O   O4        1.0  0.32683498030261443  0.4058104273429355  0.24516440389086258  1.0000
  O   O5        1.0  0.8734502071591445  0.9256734407257662  0.4481437223904448  1.0000
  O   O6        1.0  0.6265497931949783  0.42567344109815425  0.0518562777675328  1.0000
  O   O7        1.0  0.1265497930660829  0.07432655917277804  0.5518562779426768  1.0000
  O   O8        1.0  0.3734502068409128  0.57432655880039  0.9481437218224795  1.0000
  P   P1        1.0  0.7670134898597268  0.06431581033830158  0.9414212526960808  1.0000
  P   P2        1.0  0.732986510383446  0.564315810609234  0.5585787474320468  1.0000
  P   P3        1.0  0.2329865101761642  0.9356841895602426  0.05857874689393141  1.0000
  P   P4        1.0  0.26701348984178136  0.4356841892893103  0.44142125290107476  1.0000
