data_image0
_chemical_formula_structural       H32C40N2O8F10
_chemical_formula_sum              "H32 C40 N2 O8 F10"
_cell_length_a       7.303275598044191
_cell_length_b       11.062040734279515
_cell_length_c       11.226783988299786
_cell_angle_alpha    93.1069867862554
_cell_angle_beta     90.16581031184451
_cell_angle_gamma    95.66975954119292

_space_group_name_H-M_alt    "P 1"
_space_group_IT_number       1

loop_
  _space_group_symop_operation_xyz
  'x, y, z'

loop_
  _atom_site_type_symbol
  _atom_site_label
  _atom_site_symmetry_multiplicity
  _atom_site_fract_x
  _atom_site_fract_y
  _atom_site_fract_z
  _atom_site_occupancy
  H   H1        1.0  0.7293039484866471  0.8523986860008034  0.844625326713327  1.0000
  H   H2        1.0  0.27069605106304484  0.14760131395359738  0.1553746730432945  1.0000
  H   H3        1.0  0.5378276191317576  0.5987015110452375  0.8924221297997205  1.0000
  H   H4        1.0  0.46217238041793435  0.4012984889091634  0.1075778699569011  1.0000
  H   H5        1.0  0.7378698213427415  0.6494195477337057  0.18122106687838815  1.0000
  H   H6        1.0  0.26213017820482903  0.3505804522239818  0.8187789337691246  1.0000
  H   H7        1.0  0.11858895043547221  0.9252776683887987  0.6583479398614754  1.0000
  H   H8        1.0  0.8814110491142196  0.07472233156560208  0.3416520598951463  1.0000
  H   H9        1.0  0.22089510582260413  0.944217183455293  0.8646810956544924  1.0000
  H   H10       1.0  0.7791048937270878  0.05578281649910761  0.13531890410212935  1.0000
  H   H11       1.0  0.08653436900890787  0.5557413487770783  0.8921703994835022  1.0000
  H   H12       1.0  0.9134656319097946  0.44425865117572694  0.10782960027731761  1.0000
  H   H13       1.0  0.9818127382502979  0.5386228002199378  0.6851372327170673  1.0000
  H   H14       1.0  0.018187261299394072  0.461377199734463  0.31486276703955446  1.0000
  H   H15       1.0  0.9128018372778016  0.6257057017808657  0.5037534416907333  1.0000
  H   H16       1.0  0.08719816227189034  0.3742942981735352  0.49624655806588835  1.0000
  H   H17       1.0  0.07091513153064143  0.8893632836893587  0.4637584384149061  1.0000
  H   H18       1.0  0.9290848680190504  0.11063671626504208  0.5362415613417155  1.0000
  H   H19       1.0  0.32837975114440776  0.8679538399780399  0.16031085653837626  1.0000
  H   H20       1.0  0.6716202484052841  0.13204615997636107  0.8396891432182454  1.0000
  H   H21       1.0  0.1827629845697084  0.9420551688521348  0.06704998331071947  1.0000
  H   H22       1.0  0.8172370149799835  0.05794483110226599  0.9329500164459021  1.0000
  H   H23       1.0  0.4112861080163319  0.9191123717453011  0.020881365401399656  1.0000
  H   H24       1.0  0.5887138915333601  0.08088762820909957  0.9791186343552221  1.0000
  H   H25       1.0  0.2616355056149819  0.6786816852042272  0.172218291698507  1.0000
  H   H26       1.0  0.7383644954424915  0.3213183156583719  0.8277817081079473  1.0000
  H   H27       1.0  0.2709779642848229  0.5787839922750585  0.04398826250270679  1.0000
  H   H28       1.0  0.7290220366338795  0.4212160076777467  0.9560117372581131  1.0000
  H   H29       1.0  0.05518465238926625  0.6233146272374519  0.09516848723485678  1.0000
  H   H30       1.0  0.9448153471604256  0.376685372716949  0.9048315125217649  1.0000
  H   H31       1.0  0.877827120132574  0.8405036041515974  0.17641865794910813  1.0000
  H   H32       1.0  0.12217287941499624  0.15949639580609007  0.8235813426984048  1.0000
  C   C1        1.0  0.5807945480823213  0.7550080522757029  0.6975585715205977  1.0000
  C   C2        1.0  0.4192054514652492  0.24499194768198462  0.302441429126915  1.0000
  C   C3        1.0  0.6226083128353986  0.8519579794871378  0.6226480865317241  1.0000
  C   C4        1.0  0.37739168671429324  0.14804202046726306  0.37735191322489764  1.0000
  C   C5        1.0  0.5707200625142212  0.8462713863138355  0.503308270499989  1.0000
  C   C6        1.0  0.4292799370354706  0.15372861364056525  0.4966917292566326  1.0000
  C   C7        1.0  0.466742232547118  0.7431088435929843  0.45475527882264916  1.0000
  C   C8        1.0  0.5332577670025739  0.25689115636141646  0.5452447209339725  1.0000
  C   C9        1.0  0.4195537256970902  0.6459105617519257  0.5259002668561877  1.0000
  C   C10       1.0  0.5804462738526017  0.3540894382024752  0.47409973290043395  1.0000
  C   C11       1.0  0.4796910297112275  0.6512134525137137  0.6438415960316304  1.0000
  C   C12       1.0  0.5203089698384645  0.3487865474406871  0.35615840372499136  1.0000
  C   C13       1.0  0.6453878818149514  0.7674828180503437  0.8200689703315264  1.0000
  C   C14       1.0  0.354612119103751  0.23251718190246148  0.17993102942929348  1.0000
  C   C15       1.0  0.6166850368171412  0.6869025598935822  0.9060298865264974  1.0000
  C   C16       1.0  0.3833149640994399  0.3130974400625095  0.09397011412521344  1.0000
  C   C17       1.0  0.6966251928843747  0.7164712358033368  0.0251588765792678  1.0000
  C   C18       1.0  0.30337480666531724  0.28352876415106393  0.9748411231773539  1.0000
  C   C19       1.0  0.0438331407663215  0.7297875133041047  0.6535878181182171  1.0000
  C   C20       1.0  0.956166858781249  0.27021248665358283  0.34641218252929573  1.0000
  C   C21       1.0  0.11358655331659279  0.8434058395210694  0.7083554914513582  1.0000
  C   C22       1.0  0.8864134462330993  0.1565941604333314  0.2916445083052634  1.0000
  C   C23       1.0  0.17161476756376945  0.8546189999853597  0.8258468400173297  1.0000
  C   C24       1.0  0.8283852333549331  0.1453809999674455  0.1741531597434902  1.0000
  C   C25       1.0  0.16472349682088397  0.7510460630782292  0.8963737756722198  1.0000
  C   C26       1.0  0.8352765027266866  0.2489539368794583  0.10362622497529302  1.0000
  C   C27       1.0  0.092652924927107  0.6372374997354946  0.8420558235833879  1.0000
  C   C28       1.0  0.9073470746225849  0.36276250021890627  0.15794417617323384  1.0000
  C   C29       1.0  0.03369225087240158  0.6277737305534931  0.7247355767229714  1.0000
  C   C30       1.0  0.9663077486751689  0.37222626940419457  0.27526442392454137  1.0000
  C   C31       1.0  0.9827024657311628  0.7146991246402723  0.5317077906036233  1.0000
  C   C32       1.0  0.017297533818529127  0.28530087531412857  0.46829220915299846  1.0000
  C   C33       1.0  0.0005813727917046359  0.7985609775444533  0.4469396955047408  1.0000
  C   C34       1.0  0.9994186281269979  0.20143902240835165  0.5530603042560791  1.0000
  C   C35       1.0  0.9200342037968722  0.7715998529498109  0.3293287731584407  1.0000
  C   C36       1.0  0.0799657957528198  0.22840014700458983  0.6706712265981809  1.0000
  C   C37       1.0  0.28983605441531873  0.8786243056073391  0.06763633749032999  1.0000
  C   C38       1.0  0.7101639465012624  0.12137569434875263  0.932363663161381  1.0000
  C   C39       1.0  0.20169679092014892  0.6547825195390868  0.08402753560619788  1.0000
  C   C40       1.0  0.7983032099985535  0.3452174804137184  0.9159724641546219  1.0000
  N   N1        1.0  0.2247862165941008  0.7604064950295008  0.011944860785867114  1.0000
  N   N2        1.0  0.7752137829555912  0.23959350492489997  0.9880551389707546  1.0000
  O   O1        1.0  0.6738601312147346  0.6254968777958273  0.09756741372781187  1.0000
  O   O2        1.0  0.3261398697039679  0.37450312215697773  0.902432586033008  1.0000
  O   O3        1.0  0.7791238720168021  0.8184091459983052  0.05520072421295054  1.0000
  O   O4        1.0  0.2208761275307684  0.1815908539593821  0.9447992764345623  1.0000
  O   O5        1.0  0.9469595810031097  0.8623783184362309  0.25614368585030306  1.0000
  O   O6        1.0  0.05304041991559289  0.13762168151657403  0.7438563139105169  1.0000
  O   O7        1.0  0.8293143133773798  0.6717386024649729  0.2987134450917041  1.0000
  O   O8        1.0  0.17068568617231214  0.32826139748942795  0.7012865546649176  1.0000
  F   F1        1.0  0.7214170891984788  0.9546984280375773  0.6660970094308075  1.0000
  F   F2        1.0  0.2785829117202237  0.04530157191522775  0.33390299033001236  1.0000
  F   F3        1.0  0.6233172363138579  0.9385186082129705  0.4330045340628775  1.0000
  F   F4        1.0  0.3766827646048445  0.0614813917398346  0.5669954656979425  1.0000
  F   F5        1.0  0.41527392099465316  0.7370464972972922  0.3393306868125457  1.0000
  F   F6        1.0  0.5847260799219278  0.26295350265879924  0.6606693138391653  1.0000
  F   F7        1.0  0.31679248208079386  0.5465556611873441  0.4791234127103304  1.0000
  F   F8        1.0  0.6832075189766795  0.453444339675255  0.5208765870961237  1.0000
  F   F9        1.0  0.4401324882059632  0.5511429372662502  0.7056660759414846  1.0000
  F   F10       1.0  0.5598675113416072  0.44885706269143727  0.2943339247060283  1.0000
