data_image0
_chemical_formula_structural       H52C72N8O4S2
_chemical_formula_sum              "H52 C72 N8 O4 S2"
_cell_length_a       7.512782801599549
_cell_length_b       13.145333548470338
_cell_length_c       14.756351261989005
_cell_angle_alpha    110.5644839148887
_cell_angle_beta     94.17811540095808
_cell_angle_gamma    97.07703916906873

_space_group_name_H-M_alt    "P 1"
_space_group_IT_number       1

loop_
  _space_group_symop_operation_xyz
  'x, y, z'

loop_
  _atom_site_type_symbol
  _atom_site_label
  _atom_site_symmetry_multiplicity
  _atom_site_fract_x
  _atom_site_fract_y
  _atom_site_fract_z
  _atom_site_occupancy
  H   H1        1.0  0.9662482977532392  0.2448917498697626  0.4890450960624733  1.0000
  H   H2        1.0  0.033751701263775864  0.7551082505981498  0.5109549037637577  1.0000
  H   H3        1.0  0.1635922746438391  0.3499651156614509  0.9015027148961221  1.0000
  H   H4        1.0  0.8364077255054425  0.6500348839904604  0.09849728472229505  1.0000
  H   H5        1.0  0.3987072860209023  0.17777550327477185  0.3294786452966879  1.0000
  H   H6        1.0  0.6012927143195899  0.8222244971990111  0.6705213552645031  1.0000
  H   H7        1.0  0.6737470778265623  0.26096934280707357  0.45333462906497995  1.0000
  H   H8        1.0  0.3262529223227194  0.7390306568448377  0.5466653705534371  1.0000
  H   H9        1.0  0.00880472913978359  0.10800212252239041  0.23718650839839966  1.0000
  H   H10       1.0  0.9911952709966426  0.8919978771284062  0.7628134918968353  1.0000
  H   H11       1.0  0.7356504960965748  0.029821467482917374  0.11225916321603148  1.0000
  H   H12       1.0  0.26434950405270696  0.970178532168994  0.8877408364023854  1.0000
  H   H13       1.0  0.009349721225851716  0.06833841778952428  0.08448759987802053  1.0000
  H   H14       1.0  0.9906502789105744  0.9316615818612725  0.9155124004172145  1.0000
  H   H15       1.0  0.8893168187454071  0.17662147237881734  0.9933605689054857  1.0000
  H   H16       1.0  0.11068318139101897  0.8233785272719794  0.006639431389749435  1.0000
  H   H17       1.0  0.4319955519679482  0.30011004111160533  0.9657644405646736  1.0000
  H   H18       1.0  0.5680044481813336  0.699889958540306  0.03423555905374345  1.0000
  H   H19       1.0  0.5508828824018477  0.18112950645780387  0.04733813692341085  1.0000
  H   H20       1.0  0.44911711774743396  0.8188704931941074  0.9526618626950063  1.0000
  H   H21       1.0  0.7773280256622402  0.1348467782021916  0.8013171998119412  1.0000
  H   H22       1.0  0.22267197469110722  0.8651532222727061  0.19868280007243178  1.0000
  H   H23       1.0  0.8763500134654072  0.003972624699388659  0.6513515446984667  1.0000
  H   H24       1.0  0.12364998533468652  0.9960273749444227  0.34864845553862656  1.0000
  H   H25       1.0  0.952379366589369  0.07273556382148634  0.517535617061529  1.0000
  H   H26       1.0  0.04762063376397855  0.9272644366534113  0.4824643828228439  1.0000
  H   H27       1.0  0.7017671897007502  0.32037652923460014  0.8888959232973821  1.0000
  H   H28       1.0  0.29823281044853145  0.6796234704173113  0.1111040763210349  1.0000
  H   H29       1.0  0.7153607263048873  0.6520457438546922  0.8197537167289481  1.0000
  H   H30       1.0  0.2846392740484603  0.3479542566202055  0.18024628315542465  1.0000
  H   H31       1.0  0.8051886319725635  0.7016774186462645  0.6776337383919062  1.0000
  H   H32       1.0  0.1948113683679285  0.29832258182751864  0.32236626216928466  1.0000
  H   H33       1.0  0.9099543829436276  0.5621874543717279  0.5389805270233683  1.0000
  H   H34       1.0  0.09004561586932149  0.4378125452731981  0.461019472536907  1.0000
  H   H35       1.0  0.6830526551119633  0.5110405871524581  0.8971150396890529  1.0000
  H   H36       1.0  0.3169473436881303  0.4889594124913532  0.10288496054804055  1.0000
  H   H37       1.0  0.2769423708266853  0.6563506289136322  0.7267930056174517  1.0000
  H   H38       1.0  0.7230576295266623  0.34364937156126546  0.273206994266921  1.0000
  H   H39       1.0  0.16715431398730424  0.6979126524473606  0.889917640381175  1.0000
  H   H40       1.0  0.8328456863660434  0.30208734802753723  0.11008235950319795  1.0000
  H   H41       1.0  0.14335695770272752  0.5531192635504962  0.9637589151332376  1.0000
  H   H42       1.0  0.8566430411102216  0.44688073609442985  0.03624108442703755  1.0000
  H   H43       1.0  0.3670324413997028  0.5174126594238045  0.5801996662880458  1.0000
  H   H44       1.0  0.6329675576173122  0.4825873410441077  0.4198003335381853  1.0000
  H   H45       1.0  0.4225446500454992  0.13425373378068042  0.4889956038029525  1.0000
  H   H46       1.0  0.5774553502949928  0.8657462666931025  0.5110043967582384  1.0000
  H   H47       1.0  0.3938582585249366  0.003342361729264934  0.5791544152232955  1.0000
  H   H48       1.0  0.6061417416243452  0.9966576379226464  0.4208455843951215  1.0000
  H   H49       1.0  0.32427951156661533  0.07239192971432996  0.7507211145508261  1.0000
  H   H50       1.0  0.6757204872334781  0.9276080699294813  0.24927888568626727  1.0000
  H   H51       1.0  0.41283521636677906  0.3263158704153509  0.49136747155371285  1.0000
  H   H52       1.0  0.5871647837825026  0.6736841292365604  0.508632528064704  1.0000
  C   C1        1.0  0.5501661639593086  0.09955249071174761  0.21253037856855328  1.0000
  C   C2        1.0  0.44983383638118335  0.9004475097620354  0.7874696219926375  1.0000
  C   C3        1.0  0.5330137837283433  0.16412264519156103  0.3091162874869334  1.0000
  C   C4        1.0  0.46698621661214873  0.8358773552822221  0.6908837130742576  1.0000
  C   C5        1.0  0.684642681448694  0.20907355321157042  0.3786442976238236  1.0000
  C   C6        1.0  0.3153573187005876  0.7909264464403408  0.6213557019945933  1.0000
  C   C7        1.0  0.8572184613026996  0.1870524239697652  0.3534904576530418  1.0000
  C   C8        1.0  0.14278153903779242  0.8129475765040178  0.6465095429081491  1.0000
  C   C9        1.0  0.8751448542032453  0.12494664469805919  0.2562953275265782  1.0000
  C   C10       1.0  0.12485514594603635  0.8750533549538521  0.7437046720918388  1.0000
  C   C11       1.0  0.7231484804206423  0.0819544301733169  0.18680785241517656  1.0000
  C   C12       1.0  0.2768515199198498  0.9180455703004661  0.8131921481460144  1.0000
  C   C13       1.0  0.28827842086198696  0.11993142406128603  0.07509223027074584  1.0000
  C   C14       1.0  0.7117215794913605  0.8800685764136117  0.9249077696136271  1.0000
  C   C15       1.0  0.10209347890294777  0.11986820507004513  0.05944489423544384  1.0000
  C   C16       1.0  0.897906521246334  0.8801317945818662  0.9405551053829732  1.0000
  C   C17       1.0  0.03472572678145561  0.18141790066853222  0.009350948668251867  1.0000
  C   C18       1.0  0.9652742733549707  0.8185820989822645  0.9906490516269831  1.0000
  C   C19       1.0  0.15276680751186883  0.25016234371095747  0.978021299582056  1.0000
  C   C20       1.0  0.8472331915051461  0.7498376567569548  0.02197870024417504  1.0000
  C   C21       1.0  0.3401830836980065  0.24963313819095942  0.9927236750289595  1.0000
  C   C22       1.0  0.6598169166424855  0.7503668622828236  0.00727632553223134  1.0000
  C   C23       1.0  0.40650786891612617  0.18360921768206526  0.039154677769965666  1.0000
  C   C24       1.0  0.5934921312331556  0.816390781969846  0.9608453218484514  1.0000
  C   C25       1.0  0.8425375312906173  0.2998789733729635  0.6675197433472821  1.0000
  C   C26       1.0  0.1574624688586644  0.7001210262789478  0.332480256271135  1.0000
  C   C27       1.0  0.7957245582507226  0.26888872472597525  0.7470367344710469  1.0000
  C   C28       1.0  0.20427544210262477  0.7311112757489222  0.2529632654133258  1.0000
  C   C29       1.0  0.8095026441224473  0.1605615142943741  0.7409389634905201  1.0000
  C   C30       1.0  0.19049735601397882  0.8394384853564225  0.259061036804715  1.0000
  C   C31       1.0  0.8643240958982698  0.088218169659892  0.6586140559363655  1.0000
  C   C32       1.0  0.13567590425101209  0.9117818299920194  0.34138594368205166  1.0000
  C   C33       1.0  0.9074281160118461  0.12627284889808774  0.583870825871424  1.0000
  C   C34       1.0  0.0925718828011029  0.8737271507468382  0.4161291736888512  1.0000
  C   C35       1.0  0.7375580059248527  0.34697539640753633  0.8296894752656481  1.0000
  C   C36       1.0  0.26244199422442904  0.653024603244375  0.17031052435276903  1.0000
  C   C37       1.0  0.8311166951629276  0.41040793692620625  0.6713326368597617  1.0000
  C   C38       1.0  0.16888330519041997  0.5895920635486914  0.3286673630246111  1.0000
  C   C39       1.0  0.7726160503410388  0.4854580652852662  0.7554360167052351  1.0000
  C   C40       1.0  0.2273839498082428  0.5145419343666451  0.24456398291318196  1.0000
  C   C41       1.0  0.7610710630402616  0.5925103455552726  0.757118602310694  1.0000
  C   C42       1.0  0.2389289373002304  0.4074896549185104  0.24288139825049673  1.0000
  C   C43       1.0  0.8092015326254244  0.6199199888706483  0.6792045588788586  1.0000
  C   C44       1.0  0.19079846617466928  0.3800800107731631  0.32079544135823473  1.0000
  C   C45       1.0  0.8678325680675623  0.5403026786314585  0.6000090532293629  1.0000
  C   C46       1.0  0.1321674322857854  0.4596973218434391  0.3999909466550099  1.0000
  C   C47       1.0  0.7268810436497325  0.45132459657407936  0.8339348262787655  1.0000
  C   C48       1.0  0.27311895648669365  0.5486754030767172  0.16606517401646959  1.0000
  C   C49       1.0  0.28745952502359745  0.4115039357856379  0.7589705542493513  1.0000
  C   C50       1.0  0.7125404751256843  0.5884960638662734  0.24102944536906562  1.0000
  C   C51       1.0  0.3050850883776841  0.4888474722445055  0.7113391643149644  1.0000
  C   C52       1.0  0.6949149119628079  0.5111525282292775  0.28866083624622657  1.0000
  C   C53       1.0  0.2653432162641464  0.5949932238614285  0.7610654089440537  1.0000
  C   C54       1.0  0.7346567838722797  0.4050067757893683  0.23893459135118134  1.0000
  C   C55       1.0  0.2071233616260006  0.6187784990350694  0.851733661328355  1.0000
  C   C56       1.0  0.7928766385104254  0.38122150061572724  0.14826633896687993  1.0000
  C   C57       1.0  0.19340568801007244  0.5373896943111327  0.8932052156803265  1.0000
  C   C58       1.0  0.806594312343275  0.462610306163765  0.1067947842040462  1.0000
  C   C59       1.0  0.35490555117905226  0.4564063141423156  0.6147682130731672  1.0000
  C   C60       1.0  0.6450944491614397  0.5435936863314674  0.3852317874880236  1.0000
  C   C61       1.0  0.32194199164923915  0.3008093805219059  0.7090222335521026  1.0000
  C   C62       1.0  0.67805800716371  0.69919061912302  0.2909777660081727  1.0000
  C   C63       1.0  0.36617646423244093  0.2710797642248593  0.611706878176608  1.0000
  C   C64       1.0  0.6338235359168407  0.7289202354270521  0.38829312144180905  1.0000
  C   C65       1.0  0.391256674126778  0.16099905902187345  0.5639906776322083  1.0000
  C   C66       1.0  0.6087433260096481  0.8390009406289232  0.4360093226630268  1.0000
  C   C67       1.0  0.3755074967630088  0.08885781854446974  0.6131466122952127  1.0000
  C   C68       1.0  0.6244925033734173  0.9111421811063269  0.3868533880000224  1.0000
  C   C69       1.0  0.3354377621064329  0.1275869545269889  0.7100926183079449  1.0000
  C   C70       1.0  0.6645622366936607  0.8724130451168225  0.2899073819291482  1.0000
  C   C71       1.0  0.38166729198911875  0.35124282784729455  0.5662721732184921  1.0000
  C   C72       1.0  0.6183327083642287  0.648757172627603  0.4337278266658807  1.0000
  N   N1        1.0  0.8985575385057052  0.228083076649777  0.5878807786087265  1.0000
  N   N2        1.0  0.10144246051130977  0.7719169238181354  0.41211922121750466  1.0000
  N   N3        1.0  0.877137769221329  0.43806243509060855  0.5948324144154531  1.0000
  N   N4        1.0  0.12286223092795268  0.5619375645613027  0.405167585202964  1.0000
  N   N5        1.0  0.23434386331733598  0.437516281261378  0.8491399984668283  1.0000
  N   N6        1.0  0.7656561354827576  0.5624837183824334  0.1508600017702649  1.0000
  N   N7        1.0  0.30849250983799476  0.229860545030348  0.7569001280478033  1.0000
  N   N8        1.0  0.6915074902984315  0.7701394546204487  0.24309987224743188  1.0000
  O   O1        1.0  0.005448674548890488  0.2224722420063427  0.42006167562908997  1.0000
  O   O2        1.0  0.9945513256003913  0.7775277576455687  0.5799383239893272  1.0000
  O   O3        1.0  0.07880465660677359  0.3145617816250532  0.9375029439565026  1.0000
  O   O4        1.0  0.9211953437337185  0.6854382188487298  0.062497056604688246  1.0000
  S   S1        1.0  0.35572983598390084  0.027045761343293603  0.12881050396841115  1.0000
  S   S2        1.0  0.644270164165381  0.9729542383086176  0.8711894956500059  1.0000
