data_image0
_chemical_formula_structural       H40C68N4Cl4Br8
_chemical_formula_sum              "H40 C68 N4 Cl4 Br8"
_cell_length_a       8.568147711866288
_cell_length_b       11.544300860056484
_cell_length_c       16.588081035442652
_cell_angle_alpha    84.56368763748208
_cell_angle_beta     77.35041411941015
_cell_angle_gamma    82.48148699778373

_space_group_name_H-M_alt    "P 1"
_space_group_IT_number       1

loop_
  _space_group_symop_operation_xyz
  'x, y, z'

loop_
  _atom_site_type_symbol
  _atom_site_label
  _atom_site_symmetry_multiplicity
  _atom_site_fract_x
  _atom_site_fract_y
  _atom_site_fract_z
  _atom_site_occupancy
  H   H1        1.0  0.5462467354640874  0.34014631573951515  0.5555079253045265  1.0000
  H   H2        1.0  0.45375326513095987  0.6598536838646479  0.44449207433709365  1.0000
  H   H3        1.0  0.8285735323570336  0.30169951791818367  0.48086196526155894  1.0000
  H   H4        1.0  0.17142646681644036  0.6983004816243424  0.5191380349974399  1.0000
  H   H5        1.0  0.9534711258597272  0.26445742487175194  0.07505216997451895  1.0000
  H   H6        1.0  0.046528873569211884  0.7355425747313256  0.9249478296651973  1.0000
  H   H7        1.0  0.4420765612470173  0.16875693320485757  0.6649244796481625  1.0000
  H   H8        1.0  0.5579234390925649  0.8312430663387541  0.33507552061274026  1.0000
  H   H9        1.0  0.9896520922255299  0.4236933747485612  0.6832022884595199  1.0000
  H   H10       1.0  0.010347906947944  0.576306624793965  0.3167977117994791  1.0000
  H   H11       1.0  0.7054081756812087  0.46116008559686383  0.7593153212635676  1.0000
  H   H12       1.0  0.2945918247578961  0.5388399148809891  0.24068467837856067  1.0000
  H   H13       1.0  0.12273671675596096  0.39515024124998854  0.9756997465598269  1.0000
  H   H14       1.0  0.877263282672978  0.6048497583530889  0.02430025307988945  1.0000
  H   H15       1.0  0.05029493396242144  0.21418042464783613  0.7729423157014157  1.0000
  H   H16       1.0  0.9497050652110526  0.7858195748946901  0.2270576845575832  1.0000
  H   H17       1.0  0.8655092561317942  0.8733026574367874  0.6212671941268689  1.0000
  H   H18       1.0  0.13449074420778778  0.12669734210682435  0.3787328061340339  1.0000
  H   H19       1.0  0.4306676001141711  0.2741861445584458  0.9086842997059901  1.0000
  H   H20       1.0  0.5693324002254109  0.7258138549851659  0.09131570055491273  1.0000
  H   H21       1.0  0.29624714959705584  0.7820215151989237  0.7839417204271747  1.0000
  H   H22       1.0  0.7037528498318832  0.21797848440415374  0.21605827921254156  1.0000
  H   H23       1.0  0.19006557248922235  0.98853629750118  0.7550419056624174  1.0000
  H   H24       1.0  0.8099344266842516  0.011463702041346138  0.24495809459658163  1.0000
  H   H25       1.0  0.876026090055107  0.08678916749761945  0.8718018984308104  1.0000
  H   H26       1.0  0.12397391038399762  0.9132108329802336  0.12819810121131772  1.0000
  H   H27       1.0  0.568081795656715  0.9713222385633447  0.7027162844946734  1.0000
  H   H28       1.0  0.43191820468286707  0.028677760980267333  0.29728371576622936  1.0000
  H   H29       1.0  0.5606373410803565  0.0785917808381198  0.9460724174147075  1.0000
  H   H30       1.0  0.43936265910328315  0.9214082195791818  0.05392758284670328  1.0000
  H   H31       1.0  0.9665334207947754  0.6664682184499365  0.6530987642863216  1.0000
  H   H32       1.0  0.033466579544806724  0.3335317810936753  0.34690123597458117  1.0000
  H   H33       1.0  0.3743950107682188  0.09589833677555855  0.5424395582980157  1.0000
  H   H34       1.0  0.6256049894154208  0.9041016636417432  0.45756044196339507  1.0000
  H   H35       1.0  0.41559123056270136  0.9486156832283067  0.5852941714703366  1.0000
  H   H36       1.0  0.5844087700323459  0.051384316375856526  0.41470582817128354  1.0000
  H   H37       1.0  0.36610266412531195  0.5947396458584918  0.037339818362489695  1.0000
  H   H38       1.0  0.6338973348922196  0.4052603545577241  0.9626601818970172  1.0000
  H   H39       1.0  0.5627565876220155  0.6205342824995241  0.9768177891826842  1.0000
  H   H40       1.0  0.43724341180692355  0.37946571710355337  0.023182210457031942  1.0000
  C   C1        1.0  0.12491957414433162  0.508353891844714  0.7912279215122014  1.0000
  C   C2        1.0  0.8750804252846075  0.49164610775836337  0.2087720781275148  1.0000
  C   C3        1.0  0.6066920804139115  0.4031619416366619  0.6624856431841559  1.0000
  C   C4        1.0  0.3933079197697281  0.5968380587806397  0.3375143570772548  1.0000
  C   C5        1.0  0.958268252229588  0.8526761309091504  0.6576091562531107  1.0000
  C   C6        1.0  0.04173174810999401  0.14732386863446137  0.3423908440077922  1.0000
  C   C7        1.0  0.09743248245077162  0.31349839761623655  0.8675306586738997  1.0000
  C   C8        1.0  0.9025675178888103  0.6865016019273752  0.13246934158700305  1.0000
  C   C9        1.0  0.023007349686047947  0.9417666216618712  0.6860436640085157  1.0000
  C   C10       1.0  0.9769926495869488  0.05823337881489624  0.3139563356317087  1.0000
  C   C11       1.0  0.20869505423021334  0.5883552380305427  0.7341795315888675  1.0000
  C   C12       1.0  0.7913049463648338  0.41164476157362057  0.2658204680527527  1.0000
  C   C13       1.0  0.46659317724274807  0.14919164717489114  0.7268541856967886  1.0000
  C   C14       1.0  0.5334068231963568  0.8508083533029619  0.27314581394533954  1.0000
  C   C15       1.0  0.5713282680829456  0.013145933586107267  0.8266636966878955  1.0000
  C   C16       1.0  0.4286717323561592  0.9868540668917458  0.1733363029542326  1.0000
  C   C17       1.0  0.9034910963196962  0.17003773095845476  0.9787994523489867  1.0000
  C   C18       1.0  0.096508904275351  0.8299622686457083  0.021200547292633414  1.0000
  C   C19       1.0  0.9671747176096672  0.5461325867982785  0.8361369125163807  1.0000
  C   C20       1.0  0.03282528257397231  0.45386741361902316  0.16386308774503014  1.0000
  C   C21       1.0  0.9301168818868382  0.15428435188853779  0.8943440168196912  1.0000
  C   C22       1.0  0.06988311855226643  0.8457156485893154  0.10565598282243706  1.0000
  C   C23       1.0  0.36458753554151674  0.5485856936918357  0.6917321655943189  1.0000
  C   C24       1.0  0.6354124646421229  0.45141430672546595  0.3082678346670919  1.0000
  C   C25       1.0  0.13941263588037256  0.7108296599305337  0.7197669773934271  1.0000
  C   C26       1.0  0.8605873647146747  0.2891703396736295  0.2802330222481931  1.0000
  C   C27       1.0  0.19408308336201133  0.392537699241292  0.8065045299398519  1.0000
  C   C28       1.0  0.805916917233036  0.6074623003628711  0.19349546970176823  1.0000
  C   C29       1.0  0.8917018510182414  0.40591748534919364  0.6557680900474306  1.0000
  C   C30       1.0  0.10829814916539818  0.594082515068108  0.3442319102139801  1.0000
  C   C31       1.0  0.46104023970570807  0.20825287504870635  0.8632435846921171  1.0000
  C   C32       1.0  0.5389597604779315  0.7917471253685953  0.1367564155692936  1.0000
  C   C33       1.0  0.6425579995039692  0.35868954420160065  0.5840838297582583  1.0000
  C   C34       1.0  0.3574419995135622  0.6413104562146154  0.4159161705012487  1.0000
  C   C35       1.0  0.8017617656807474  0.33787312695939264  0.541277049858489  1.0000
  C   C36       1.0  0.19823823450289219  0.6621268734579089  0.45872295040292194  1.0000
  C   C37       1.0  0.4370458823717489  0.43341822515329875  0.7059701700820245  1.0000
  C   C38       1.0  0.5629541182232982  0.5665817744508643  0.29402982955959567  1.0000
  C   C39       1.0  0.20204930702055837  0.8018385658657516  0.7482499029976558  1.0000
  C   C40       1.0  0.7979506931630811  0.19816143455155008  0.251750097263755  1.0000
  C   C41       1.0  0.9252058116292451  0.3627278204391552  0.577249884281803  1.0000
  C   C42       1.0  0.07479418896580199  0.637272179165008  0.422750115359817  1.0000
  C   C43       1.0  0.14285383354505174  0.9179653098160279  0.7320967034364403  1.0000
  C   C44       1.0  0.8571461654724798  0.08203469060018813  0.26790329682306674  1.0000
  C   C45       1.0  0.028744870974132  0.22590453166382485  0.8390547202789362  1.0000
  C   C46       1.0  0.9712551281993419  0.7740954678787012  0.1609452799800627  1.0000
  C   C47       1.0  0.35079797141449826  0.3548903802077727  0.763548149042384  1.0000
  C   C48       1.0  0.6492020277589757  0.6451096193347534  0.23645185121661497  1.0000
  C   C49       1.0  0.45070930091231237  0.6285668322315343  0.6329361052472772  1.0000
  C   C50       1.0  0.5492906982611616  0.37143316731099174  0.36706389501172176  1.0000
  C   C51       1.0  0.42741841414377574  0.23560215392088285  0.7841163552178827  1.0000
  C   C52       1.0  0.5725815860398638  0.7643978464964187  0.2158836450435282  1.0000
  C   C53       1.0  0.5334908010330328  0.09781858729631829  0.8847600031020268  1.0000
  C   C54       1.0  0.4665091993065494  0.9021814122472934  0.11523999715887592  1.0000
  C   C55       1.0  0.7322233293261556  0.4262330553389136  0.6983252381729286  1.0000
  C   C56       1.0  0.26777667085748386  0.573766945078388  0.3016747620884824  1.0000
  C   C57       1.0  0.973047067922791  0.25514570804666126  0.008845659406845124  1.0000
  C   C58       1.0  0.026952932260848442  0.7448542923706404  0.9911543408545658  1.0000
  C   C59       1.0  0.06881252722171532  0.3279462790862428  0.9526530380763504  1.0000
  C   C60       1.0  0.9311874729619244  0.6720537213310588  0.0473469621850604  1.0000
  C   C61       1.0  0.016010266315945963  0.7367870791682579  0.6754544738653754  1.0000
  C   C62       1.0  0.9839897342791013  0.2632129204359051  0.32454552577624474  1.0000
  C   C63       1.0  0.5374844271366894  0.03765475487264906  0.747845797505576  1.0000
  C   C64       1.0  0.4625155722922498  0.9623452447304283  0.25215420213414036  1.0000
  C   C65       1.0  0.41740756792011313  0.004980033673801068  0.5282448588237949  1.0000
  C   C66       1.0  0.582592431508826  0.9950199659292763  0.4717551408159213  1.0000
  C   C67       1.0  0.46775653391690253  0.562486275498141  0.9893377762471058  1.0000
  C   C68       1.0  0.5322434666781447  0.4375137241060222  0.01066222339451429  1.0000
  N   N1        1.0  0.8382498183873165  0.5773352765418415  0.8729307527602442  1.0000
  N   N2        1.0  0.16175018104162261  0.4226647230612359  0.127069246879472  1.0000
  N   N3        1.0  0.5171766043765532  0.6954291063053148  0.5844115582431487  1.0000
  N   N4        1.0  0.4828233958070863  0.3045708941119868  0.4155884420182621  1.0000
  Cl  Cl1       1.0  0.2773511688502357  0.9566759201225957  0.47650679832001985  1.0000
  Cl  Cl2       1.0  0.7226488317448114  0.04332407948156747  0.5234932013216003  1.0000
  Cl  Cl3       1.0  0.39511029895969413  0.5665294075247302  0.8956758876992081  1.0000
  Cl  Cl4       1.0  0.6048897012239455  0.43347059289257145  0.10432411256220263  1.0000
  Br  Br1       1.0  0.9476948251010828  0.10003999133095741  0.660394544947396  1.0000
  Br  Br2       1.0  0.05230517432785625  0.8999600082721201  0.3396054546923203  1.0000
  Br  Br3       1.0  0.1431576556875736  0.3368330049523605  0.5188440326916233  1.0000
  Br  Br4       1.0  0.8568423437413654  0.6631669946507169  0.48115596694809304  1.0000
  Br  Br5       1.0  0.7701415740663711  0.07165388905364214  0.05448275142299506  1.0000
  Br  Br6       1.0  0.22985842627321093  0.9283461104899696  0.9455172488379077  1.0000
  Br  Br7       1.0  0.6721676796834076  0.8622065996298622  0.8554226139518473  1.0000
  Br  Br8       1.0  0.32783232065617446  0.1377933999137496  0.1445773863090554  1.0000
