data_image0
_chemical_formula_structural       H84C152N16
_chemical_formula_sum              "H84 C152 N16"
_cell_length_a       11.27065738477232
_cell_length_b       17.456498379842593
_cell_length_c       13.591792783900088
_cell_angle_alpha    90.0
_cell_angle_beta     103.8403943174707
_cell_angle_gamma    90.0

_space_group_name_H-M_alt    "P 1"
_space_group_IT_number       1

loop_
  _space_group_symop_operation_xyz
  'x, y, z'

loop_
  _atom_site_type_symbol
  _atom_site_label
  _atom_site_symmetry_multiplicity
  _atom_site_fract_x
  _atom_site_fract_y
  _atom_site_fract_z
  _atom_site_occupancy
  H   H1        1.0  0.3236686166987958  0.4170086761733277  0.4178043833933474  1.0000
  H   H2        1.0  0.17633138319642316  0.9170086761778363  0.08219561647119858  1.0000
  H   H3        1.0  0.6763313830916421  0.5829913238356893  0.5821956163357446  1.0000
  H   H4        1.0  0.8236686175078056  0.08299132383118081  0.9178043834393075  1.0000
  H   H5        1.0  0.293789166004755  0.5556750356761679  0.426111753553915  1.0000
  H   H6        1.0  0.206210833890464  0.05567503567165935  0.073888246310631  1.0000
  H   H7        1.0  0.706210833785683  0.4443249643328492  0.573888246175177  1.0000
  H   H8        1.0  0.7937891658999741  0.9443249643373577  0.926111753418461  1.0000
  H   H9        1.0  0.6699478971688716  0.3095265363321233  0.7856757217360582  1.0000
  H   H10       1.0  0.8300521025167853  0.8095265363366317  0.7143242778575798  1.0000
  H   H11       1.0  0.3300521026215664  0.6904734636768938  0.21432427799303383  1.0000
  H   H12       1.0  0.16994789727365256  0.19047346367238524  0.28567572187151213  1.0000
  H   H13       1.0  0.5473070566852823  0.6926026335247779  0.7913221060140482  1.0000
  H   H14       1.0  0.9526929430001891  0.19260263352026943  0.7086778943152912  1.0000
  H   H15       1.0  0.4526929431049701  0.3073973664842391  0.20867789445074514  1.0000
  H   H16       1.0  0.04730705679024888  0.8073973664887476  0.2913221054138009  1.0000
  H   H17       1.0  0.21713914965564052  0.5103686796825021  0.6402108808217523  1.0000
  H   H18       1.0  0.2828608510561002  0.01036867967799348  0.8597891196740628  1.0000
  H   H19       1.0  0.7828608510485884  0.4896313203265151  0.35978911908875383  1.0000
  H   H20       1.0  0.717139149647943  0.9896313203310235  0.14021088097214465  1.0000
  H   H21       1.0  0.5054930477980242  0.22028458779799537  0.7068437417273343  1.0000
  H   H22       1.0  0.9945069528012379  0.7202845878025038  0.793156258783419  1.0000
  H   H23       1.0  0.4945069519922282  0.7797154122110217  0.29315625873745893  1.0000
  H   H24       1.0  0.005493047902805191  0.27971541220651314  0.20684374186278837  1.0000
  H   H25       1.0  0.29632625453735584  0.26788159104117915  0.6342403462782062  1.0000
  H   H26       1.0  0.20367374526059412  0.7678815910456877  0.8657596540361947  1.0000
  H   H27       1.0  0.7036737452528965  0.7321184089678379  0.36575965418658696  1.0000
  H   H28       1.0  0.7963262545298437  0.2321184089633294  0.13424034569289733  1.0000
  H   H29       1.0  0.7073559583611665  0.6568576383703931  0.8482823605316896  1.0000
  H   H30       1.0  0.7926440422380957  0.1568576383658846  0.6517176399790638  1.0000
  H   H31       1.0  0.2926440423428767  0.34314236163862394  0.15171764011451788  1.0000
  H   H32       1.0  0.20735595755234226  0.8431423616431324  0.3482823597500281  1.0000
  H   H33       1.0  0.9541159197445325  0.4677197008437853  0.9276051876008444  1.0000
  H   H34       1.0  0.5458840808549154  0.9677197008482938  0.5723948121742077  1.0000
  H   H35       1.0  0.04588408095969639  0.5322802991652318  0.07239481230966172  1.0000
  H   H36       1.0  0.45411591893552256  0.032280299160723266  0.4276051875548843  1.0000
  H   H37       1.0  0.7925546908541499  0.3778320752812669  0.8538453134575594  1.0000
  H   H38       1.0  0.707445309745298  0.8778320752857754  0.6461546863174925  1.0000
  H   H39       1.0  0.20744530985007903  0.6221679247277502  0.1461546864529466  1.0000
  H   H40       1.0  0.29255469004513995  0.12216792472324167  0.3538453134115994  1.0000
  H   H41       1.0  0.9118804162404796  0.6090331026683179  0.9240847074544591  1.0000
  H   H42       1.0  0.5881195834451773  0.1090331026638094  0.5759152921391789  1.0000
  H   H43       1.0  0.08811958354995839  0.39096689734069917  0.07591529227463299  1.0000
  H   H44       1.0  0.4118804163452606  0.8909668973452076  0.42408470758991296  1.0000
  H   H45       1.0  0.34065574844207075  0.7396752486689963  0.7172766890044142  1.0000
  H   H46       1.0  0.1593442513558792  0.23967524866448767  0.7827233113099868  1.0000
  H   H47       1.0  0.6593442513481816  0.2603247513400208  0.2827233114603792  1.0000
  H   H48       1.0  0.8406557484345588  0.7603247513445294  0.2172766884191052  1.0000
  H   H49       1.0  0.25068584767344926  0.40478615907067816  0.6376340645765088  1.0000
  H   H50       1.0  0.24931415212468624  0.9047861590751868  0.8623659350021907  1.0000
  H   H51       1.0  0.7493141521169887  0.595213840938339  0.3623659351525832  1.0000
  H   H52       1.0  0.7506858476657517  0.09521384093383035  0.13763406472690118  1.0000
  H   H53       1.0  0.17308084642707838  0.6473431489014291  0.6432445896875562  1.0000
  H   H54       1.0  0.3269191533710571  0.14734314889692057  0.8567554098911435  1.0000
  H   H55       1.0  0.8269191533633595  0.35265685110758793  0.3567554100415359  1.0000
  H   H56       1.0  0.6730808464193809  0.8526568511120964  0.14324458983794852  1.0000
  H   H57       1.0  0.12346443415612651  0.12024646606239524  0.5311134968175159  1.0000
  H   H58       1.0  0.3765355656420089  0.6202464660669037  0.9688865027611838  1.0000
  H   H59       1.0  0.8765355656343116  0.8797535339466218  0.46888650291157613  1.0000
  H   H60       1.0  0.623464434148429  0.3797535339421133  0.031113496967908202  1.0000
  H   H61       1.0  0.9032246460263897  0.12765658848129735  0.44956785882133554  1.0000
  H   H62       1.0  0.5967753537563508  0.6276565884858059  0.05043214105814883  1.0000
  H   H63       1.0  0.09677535376404832  0.8723434115277198  0.5504321409077565  1.0000
  H   H64       1.0  0.40322464603408714  0.3723434115232112  0.9495678586709431  1.0000
  H   H65       1.0  0.6143208892841553  0.02075256057184514  0.7746161538922077  1.0000
  H   H66       1.0  0.8856791113151069  0.5207525605763537  0.7253838466185456  1.0000
  H   H67       1.0  0.38567911141988787  0.979247439437172  0.22538384675399956  1.0000
  H   H68       1.0  0.11432088847514554  0.4792474394326634  0.27461615384624766  1.0000
  H   H69       1.0  0.5119331632243318  0.21504187084476725  0.10465221828832359  1.0000
  H   H70       1.0  0.9880668365584087  0.7150418708492758  0.3953477815911608  1.0000
  H   H71       1.0  0.48806683656610617  0.7849581291642498  0.8953477814407684  1.0000
  H   H72       1.0  0.011933163232029332  0.2849581291597413  0.6046522181379312  1.0000
  H   H73       1.0  0.5633070900301645  0.8854026491273542  0.7962314639612837  1.0000
  H   H74       1.0  0.9366929096554923  0.3854026491228457  0.7037685356323542  1.0000
  H   H75       1.0  0.4366929097602734  0.1145973508816628  0.2037685357678082  1.0000
  H   H76       1.0  0.06330709013494554  0.6145973508861713  0.2962314640967378  1.0000
  H   H77       1.0  0.5983799402479624  0.2524176936359749  0.9583815281758139  1.0000
  H   H78       1.0  0.901620059437509  0.7524176936404835  0.5416184721535254  1.0000
  H   H79       1.0  0.4016200595424756  0.7475823063730421  0.0416184715532781  1.0000
  H   H80       1.0  0.09837994035274342  0.24758230636853362  0.45838152831126794  1.0000
  H   H81       1.0  0.6296356981077047  0.1550768889095162  0.835030405874057  1.0000
  H   H82       1.0  0.8703643024917429  0.6550768889140247  0.664969593900995  1.0000
  H   H83       1.0  0.37036430168273327  0.8449231110995009  0.16496959385503493  1.0000
  H   H84       1.0  0.12963569821248577  0.3449231110949923  0.3350304060095111  1.0000
  C   C1        1.0  0.3999880354036231  0.45378683442878587  0.4531903454004811  1.0000
  C   C2        1.0  0.10001196449159591  0.9537868344332944  0.04680965446406489  1.0000
  C   C3        1.0  0.6000119653006056  0.5462131655802313  0.5468096545100251  1.0000
  C   C4        1.0  0.899988035298842  0.04621316557572265  0.9531903452650271  1.0000
  C   C5        1.0  0.48276646975849563  0.580294174099499  0.5050000275063269  1.0000
  C   C6        1.0  0.017233530039639837  0.08029417409499046  0.9949999720723728  1.0000
  C   C7        1.0  0.5172335300319424  0.41970582590951805  0.49499997222276515  1.0000
  C   C8        1.0  0.9827664697507982  0.9197058259140265  0.005000027656719229  1.0000
  C   C9        1.0  0.4656653474649005  0.6595967547131767  0.5099266582783392  1.0000
  C   C10       1.0  0.034334652333049345  0.15959675470866808  0.9900733420360617  1.0000
  C   C11       1.0  0.5343346523255373  0.3404032452958405  0.4900733414507528  1.0000
  C   C12       1.0  0.9656653483709938  0.840403245300349  0.009926658610145692  1.0000
  C   C13       1.0  0.38342007955059076  0.5308451018275497  0.4579705458039331  1.0000
  C   C14       1.0  0.11657992125823344  0.030845101823041284  0.0420294549777283  1.0000
  C   C15       1.0  0.6165799211534525  0.4691548981814673  0.5420294548422743  1.0000
  C   C16       1.0  0.8834200794458097  0.9691548981859759  0.9579705456684791  1.0000
  C   C17       1.0  0.3512969366520126  0.6944698327356825  0.4671493289612658  1.0000
  C   C18       1.0  0.1487030632432063  0.19446983273117405  0.03285067090328018  1.0000
  C   C19       1.0  0.6487030631384253  0.3055301672733345  0.5328506707678262  1.0000
  C   C20       1.0  0.851296936547046  0.805530167277843  0.967149329561513  1.0000
  C   C21       1.0  0.5627750605499953  0.7085436804601319  0.5579633495816376  1.0000
  C   C22       1.0  0.9372249400494523  0.2085436804556233  0.9420366501934145  1.0000
  C   C23       1.0  0.43722493924044264  0.29145631954888523  0.44203665014745436  1.0000
  C   C24       1.0  0.06277506065477635  0.7914563195533938  0.05796334971709159  1.0000
  C   C25       1.0  0.6525580691119056  0.4647010679625857  0.8038263187951631  1.0000
  C   C26       1.0  0.8474419305737513  0.9647010679670942  0.696173680798475  1.0000
  C   C27       1.0  0.34744193067853235  0.5352989320464314  0.19617368093392892  1.0000
  C   C28       1.0  0.1525580692166866  0.03529893204192285  0.30382631893061707  1.0000
  C   C29       1.0  0.6276977387006667  0.5447658736061906  0.8032032053111416  1.0000
  C   C30       1.0  0.872302261898781  0.044765873601681994  0.6967967944639104  1.0000
  C   C31       1.0  0.37230226200356203  0.45523412640282657  0.1967967945993645  1.0000
  C   C32       1.0  0.12769773880544774  0.9552341264073351  0.3032032054465956  1.0000
  C   C33       1.0  0.5558569464882637  0.4112783705975252  0.7574834266781856  1.0000
  C   C34       1.0  0.9441430531972077  0.9112783706020336  0.7425165736511536  1.0000
  C   C35       1.0  0.44414305330198867  0.5887216294114919  0.24251657378660763  1.0000
  C   C36       1.0  0.05585694659304468  0.08872162940698336  0.25748342681363967  1.0000
  C   C37       1.0  0.5786905629396528  0.33201732523245375  0.7543095201312406  1.0000
  C   C38       1.0  0.9213094367458184  0.8320173252369623  0.7456904801980987  1.0000
  C   C39       1.0  0.4213094368505996  0.6679826747765633  0.24569048033355273  1.0000
  C   C40       1.0  0.07869056304461944  0.1679826747720548  0.25430951953099323  1.0000
  C   C41       1.0  0.47602869922599533  0.6514329903144378  0.7591940045214319  1.0000
  C   C42       1.0  0.023971300572140166  0.1514329903099293  0.7408059950572677  1.0000
  C   C43       1.0  0.5239713005644425  0.3485670096945792  0.24080599520766008  1.0000
  C   C44       1.0  0.9760286992182976  0.8485670096990878  0.2591940046718243  1.0000
  C   C45       1.0  0.5045650406349679  0.5727403269801783  0.7589142670651685  1.0000
  C   C46       1.0  0.9954349599644798  0.07274032697566978  0.7410857327098836  1.0000
  C   C47       1.0  0.4954349600692609  0.4272596730288387  0.24108573284533774  1.0000
  C   C48       1.0  0.0045650407397489195  0.9272596730333473  0.2589142672006224  1.0000
  C   C49       1.0  0.291038714345532  0.5492672322572896  0.6739745700785299  1.0000
  C   C50       1.0  0.20896128545260342  0.04926723225278098  0.8260254295001698  1.0000
  C   C51       1.0  0.7089612854449059  0.45073276775172755  0.3260254296505621  1.0000
  C   C52       1.0  0.7910387143378347  0.950732767756236  0.17397457022892224  1.0000
  C   C53       1.0  0.4868384803776345  0.281198153443432  0.710316590350265  1.0000
  C   C54       1.0  0.013161519420500917  0.7811981534479405  0.7896834092284347  1.0000
  C   C55       1.0  0.5131615194128034  0.7188018465655851  0.2896834093788271  1.0000
  C   C56       1.0  0.986838480369937  0.2188018465610765  0.21031659050065726  1.0000
  C   C57       1.0  0.36815621516957087  0.3079907369171067  0.668964214876453  1.0000
  C   C58       1.0  0.1318437846285647  0.8079907369216153  0.8310357847022466  1.0000
  C   C59       1.0  0.6318437846208671  0.6920092630919104  0.33103578485263896  1.0000
  C   C60       1.0  0.8681562151618732  0.19200926308740182  0.16896421502684542  1.0000
  C   C61       1.0  0.40969614787498904  0.520357433223209  0.7153233143178243  1.0000
  C   C62       1.0  0.09030385192296093  0.020357433218700552  0.7846766859965765  1.0000
  C   C63       1.0  0.5903038519152635  0.47964256678580797  0.284676686146969  1.0000
  C   C64       1.0  0.9096961478672914  0.9796425667903166  0.2153233144682167  1.0000
  C   C65       1.0  0.7233411251547187  0.5954493440679212  0.8472258721498053  1.0000
  C   C66       1.0  0.7766588745309382  0.09544934406341257  0.6527741274438327  1.0000
  C   C67       1.0  0.27665887463571925  0.40455065594109596  0.15277412757928668  1.0000
  C   C68       1.0  0.2233411252594997  0.9045506559456046  0.3472258722852593  1.0000
  C   C69       1.0  0.863166471439942  0.4896951807855684  0.8936024558457728  1.0000
  C   C70       1.0  0.6368335282455294  0.989695180790077  0.6063975444835665  1.0000
  C   C71       1.0  0.13683352835031046  0.5103048192234487  0.10639754461902064  1.0000
  C   C72       1.0  0.3631664715447229  0.010304819218940175  0.3936024559812266  1.0000
  C   C73       1.0  0.7712805782871126  0.4387205969579483  0.8504591253070602  1.0000
  C   C74       1.0  0.7287194223121495  0.9387205969624569  0.6495408752036931  1.0000
  C   C75       1.0  0.22871942241711612  0.5612794030510687  0.14954087460344578  1.0000
  C   C76       1.0  0.2712805783918937  0.06127940304656023  0.35045912544251434  1.0000
  C   C77       1.0  0.43550018907500465  0.43876151753574444  0.714312501901886  1.0000
  C   C78       1.0  0.06449981163673604  0.9387615175402528  0.7856874985939291  1.0000
  C   C79       1.0  0.5644998116290385  0.5612384824732727  0.2856874987443214  1.0000
  C   C80       1.0  0.9355001890674927  0.06123848246876412  0.21431250131657706  1.0000
  C   C81       1.0  0.8394326157942759  0.568653936431065  0.8916339732737104  1.0000
  C   C82       1.0  0.6605673838911955  0.06865393642655651  0.6083660270556289  1.0000
  C   C83       1.0  0.16056738399597653  0.431346063577952  0.10836602719108286  1.0000
  C   C84       1.0  0.3394326158990569  0.9313460635824605  0.3916339734091644  1.0000
  C   C85       1.0  0.358866977397077  0.6783968194718089  0.7179693461474764  1.0000
  C   C86       1.0  0.14113302240105843  0.17839681946730032  0.7820306534312232  1.0000
  C   C87       1.0  0.6411330223933609  0.3216031805372082  0.2820306535816156  1.0000
  C   C88       1.0  0.8588669773893796  0.8216031805417168  0.21796934629786877  1.0000
  C   C89       1.0  0.3433128234653012  0.3854664058955834  0.6708741526321006  1.0000
  C   C90       1.0  0.1566871763328343  0.885466405900092  0.829125846946599  1.0000
  C   C91       1.0  0.6566871763251367  0.6145335941134336  0.3291258470969914  1.0000
  C   C92       1.0  0.8433128234576037  0.1145335941089251  0.17087415278249304  1.0000
  C   C93       1.0  0.2655007854908369  0.6267671603964974  0.6751866818310265  1.0000
  C   C94       1.0  0.23449921430729864  0.12676716039198888  0.8248133177476731  1.0000
  C   C95       1.0  0.7344992142996011  0.37323283961251963  0.3248133178980655  1.0000
  C   C96       1.0  0.7655007854831394  0.8732328396170282  0.17518668198141893  1.0000
  C   C97       1.0  0.06808467294411531  0.06844241118709245  0.5168695507773171  1.0000
  C   C98       1.0  0.4319153268538346  0.5684424111916009  0.9831304495370837  1.0000
  C   C99       1.0  0.931915326846137  0.9315575888219247  0.48313044968747615  1.0000
  C   C100      1.0  0.5680846729366033  0.43155758881741607  0.01686955019200827  1.0000
  C   C101      1.0  0.32371351883662713  0.05897461607700061  0.6124654534287284  1.0000
  C   C102      1.0  0.17628648096150837  0.5589746160815091  0.8875345461499713  1.0000
  C   C103      1.0  0.6762864809538109  0.9410253839320165  0.38753454630036366  1.0000
  C   C104      1.0  0.8237135188289296  0.4410253839275079  0.11246545357912072  1.0000
  C   C105      1.0  0.9467732737851432  0.07249508592521126  0.4718418691807963  1.0000
  C   C106      1.0  0.5532267269113879  0.5724950859297198  0.02815813088010212  1.0000
  C   C107      1.0  0.05322672691908535  0.9275049140838058  0.5281581307297097  1.0000
  C   C108      1.0  0.44677327379284093  0.42750491407929725  0.971841869030404  1.0000
  C   C109      1.0  0.12589654929457678  0.9959188888692101  0.5466903649578827  1.0000
  C   C110      1.0  0.3741034505035587  0.4959188888647015  0.953309634620817  1.0000
  C   C111      1.0  0.8741034504958612  0.004081111139807089  0.45330963477120934  1.0000
  C   C112      1.0  0.6258965492868792  0.5040811111443155  0.046690365108275025  1.0000
  C   C113      1.0  0.2505323557385514  0.9921867280095481  0.5934579202278902  1.0000
  C   C114      1.0  0.24946764405958405  0.49218672800503954  0.9065420793508094  1.0000
  C   C115      1.0  0.7494676440518866  0.007813271999468996  0.40654207950120186  1.0000
  C   C116      1.0  0.7505323557308539  0.5078132720039775  0.09345792037828254  1.0000
  C   C117      1.0  0.309717961348807  0.9214606366059218  0.6233335179053239  1.0000
  C   C118      1.0  0.19028203844932845  0.4214606366014133  0.8766664816733757  1.0000
  C   C119      1.0  0.6902820384416308  0.0785393634030952  0.37666648182376816  1.0000
  C   C120      1.0  0.8097179613411094  0.5785393634076038  0.12333351805571621  1.0000
  C   C121      1.0  0.5148619297114251  0.03908856548160449  0.9937817509888907  1.0000
  C   C122      1.0  0.9851380699740463  0.5390885654861131  0.5062182493404486  1.0000
  C   C123      1.0  0.48513807007882737  0.9609114345274126  0.006218249475902592  1.0000
  C   C124      1.0  0.014861929816206114  0.46091143452290406  0.4937817511243447  1.0000
  C   C125      1.0  0.5624845180468032  0.06108433185152995  0.9095234229403858  1.0000
  C   C126      1.0  0.9375154816388538  0.5610843318560386  0.5904765766532523  1.0000
  C   C127      1.0  0.43751548174363475  0.9389156681574871  0.09047657678870623  1.0000
  C   C128      1.0  0.06248451815158428  0.4389156681529786  0.4095234230758398  1.0000
  C   C129      1.0  0.5786918494318385  0.0034395867197131095  0.8389333157874542  1.0000
  C   C130      1.0  0.9213081511674236  0.5034395867242217  0.6610666847232993  1.0000
  C   C131      1.0  0.4213081512722047  0.996560413289304  0.16106668485875322  1.0000
  C   C132      1.0  0.07869184953661947  0.49656041328479544  0.33893331592290815  1.0000
  C   C133      1.0  0.49695061847558464  0.09545037634374784  0.06516203356193388  1.0000
  C   C134      1.0  0.0030493814196343306  0.5954503763482564  0.43483796630261207  1.0000
  C   C135      1.0  0.5030493813148533  0.9045496236652693  0.9348379661671581  1.0000
  C   C136      1.0  0.9969506192845946  0.4045496236607607  0.565162033607894  1.0000
  C   C137      1.0  0.5270336756496284  0.17218827365005052  0.05072098199485055  1.0000
  C   C138      1.0  0.972966324133112  0.6721882736545591  0.44927901788463387  1.0000
  C   C139      1.0  0.47296632414062395  0.8278117263589665  0.9492790184699428  1.0000
  C   C140      1.0  0.027033675657325947  0.32781172635445804  0.5507209818444582  1.0000
  C   C141      1.0  0.5506225851338701  0.9284426680161124  0.8509450529409799  1.0000
  C   C142      1.0  0.949377415465392  0.4284426680116038  0.6490549475697734  1.0000
  C   C143      1.0  0.44937741557017313  0.07155733199290473  0.1490549477052275  1.0000
  C   C144      1.0  0.050622585238651076  0.5715573319974133  0.35094505307643387  1.0000
  C   C145      1.0  0.5744736794741641  0.1929666292003731  0.9687445476936538  1.0000
  C   C146      1.0  0.9255263202113073  0.6929666292048816  0.5312554526356855  1.0000
  C   C147      1.0  0.4255263203160883  0.8070333708086439  0.03125545277113951  1.0000
  C   C148      1.0  0.07447367957913069  0.3070333708041354  0.46874454709340646  1.0000
  C   C149      1.0  0.5922295511431847  0.13833011337419057  0.8988123089011054  1.0000
  C   C150      1.0  0.9077704485424722  0.6383301133786992  0.6011876906925325  1.0000
  C   C151      1.0  0.40777044864725337  0.8616698866348265  0.1011876908279866  1.0000
  C   C152      1.0  0.09222955124796564  0.36166988663031796  0.39881230903655934  1.0000
  N   N1        1.0  0.2568480054574217  0.7226407224123804  0.4305116511753755  1.0000
  N   N2        1.0  0.2431519944376117  0.22264072240787186  0.06948834942487182  1.0000
  N   N3        1.0  0.7431519943328306  0.2773592775966367  0.5694883492894178  1.0000
  N   N4        1.0  0.7568480053526407  0.7773592776011452  0.9305116510399215  1.0000
  N   N5        1.0  0.6441680015495864  0.7475281534736788  0.59861886863426  1.0000
  N   N6        1.0  0.8558319990498614  0.2475281534691703  0.9013811311407921  1.0000
  N   N7        1.0  0.3558319991546423  0.2524718465353382  0.40138113127624614  1.0000
  N   N8        1.0  0.14416800074057665  0.7524718465398468  0.09861886858829988  1.0000
  N   N9        1.0  0.3830895666324392  0.11458477905911142  0.6270289105621506  1.0000
  N   N10       1.0  0.11691043316551077  0.61458477906362  0.8729710897522505  1.0000
  N   N11       1.0  0.6169104331579988  0.8854152209499057  0.37297108916694144  1.0000
  N   N12       1.0  0.8830895666247417  0.38541522094539715  0.12702891071254296  1.0000
  N   N13       1.0  0.3585658688031215  0.8629485789312021  0.6473501411172488  1.0000
  N   N14       1.0  0.1414341319086192  0.3629485789266937  0.8526498593785662  1.0000
  N   N15       1.0  0.6414341319009217  0.13705142107781484  0.35264985952895855  1.0000
  N   N16       1.0  0.8585658687956095  0.6370514210823234  0.14735014053193995  1.0000
