data_image0
_chemical_formula_structural       H96C116N16O4S8
_chemical_formula_sum              "H96 C116 N16 O4 S8"
_cell_length_a       9.947825796984592
_cell_length_b       18.205411668770594
_cell_length_c       14.086331232954937
_cell_angle_alpha    89.99996765015281
_cell_angle_beta     101.52324713614355
_cell_angle_gamma    90.00035623516942

_space_group_name_H-M_alt    "P 1"
_space_group_IT_number       1

loop_
  _space_group_symop_operation_xyz
  'x, y, z'

loop_
  _atom_site_type_symbol
  _atom_site_label
  _atom_site_symmetry_multiplicity
  _atom_site_fract_x
  _atom_site_fract_y
  _atom_site_fract_z
  _atom_site_occupancy
  H   H1        1.0  0.7259001583524727  0.19073544427173827  0.6131834356701372  1.0000
  H   H2        1.0  0.7741021839399973  0.6907301431971022  0.8868157787007177  1.0000
  H   H3        1.0  0.2740998407892063  0.8092645558583051  0.38681656477491033  1.0000
  H   H4        1.0  0.22589781521062235  0.3092698569329414  0.11318422103571014  1.0000
  H   H5        1.0  0.2270316391297512  0.3208154929153774  0.5531054498382131  1.0000
  H   H6        1.0  0.27297055642434254  0.8208181555469418  0.9468950114390614  1.0000
  H   H7        1.0  0.7729683610467499  0.6791845066653807  0.44689455004912815  1.0000
  H   H8        1.0  0.7270294437521618  0.17918184458310352  0.05310498844828025  1.0000
  H   H9        1.0  0.32585825206927566  0.4393803631301666  0.5135541211346121  1.0000
  H   H10       1.0  0.1741391113004201  0.9393797457731841  0.9864431721830628  1.0000
  H   H11       1.0  0.6741417481072287  0.5606196369998788  0.48644587875272943  1.0000
  H   H12       1.0  0.8258608888760842  0.06062025435686112  0.013556827704278799  1.0000
  H   H13       1.0  0.5781551760413383  0.45178537532500235  0.5216362375041157  1.0000
  H   H14       1.0  0.9218420692522452  0.9517802735343133  0.9783601813681705  1.0000
  H   H15       1.0  0.421844824135166  0.5482146248050429  0.47836376238322575  1.0000
  H   H16       1.0  0.0781579309242592  0.048219726595731975  0.02163981851917106  1.0000
  H   H17       1.0  0.7361820076997394  0.34772249334596095  0.5709268790473613  1.0000
  H   H18       1.0  0.7638182989207637  0.8477149099747975  0.9290701705012755  1.0000
  H   H19       1.0  0.2638179914508771  0.6522775062347954  0.42907312068906633  1.0000
  H   H20       1.0  0.23618170125573745  0.15228508960596054  0.07092982938606586  1.0000
  H   H21       1.0  0.40357654082346933  0.9125345388801447  0.6305199225703549  1.0000
  H   H22       1.0  0.0964247945004572  0.4125318866473641  0.8694739046338632  1.0000
  H   H23       1.0  0.5964234583271504  0.08746546124989885  0.36948007716607295  1.0000
  H   H24       1.0  0.9035752056760439  0.587468112933394  0.13052609525347808  1.0000
  H   H25       1.0  0.6076681165174385  0.8860448894027921  0.756374282443232  1.0000
  H   H26       1.0  0.8923300906862697  0.3860456369200101  0.7436212816500051  1.0000
  H   H27       1.0  0.39233188365906585  0.11395511072725326  0.24362571744410955  1.0000
  H   H28       1.0  0.10766990949023135  0.613954362660748  0.25637871823733616  1.0000
  H   H29       1.0  0.7732330704999716  0.9863075898680446  0.8196409440991469  1.0000
  H   H30       1.0  0.726768722243284  0.4863094912242588  0.68036165484153  1.0000
  H   H31       1.0  0.22676692967653264  0.013692410262000753  0.18035905578819467  1.0000
  H   H32       1.0  0.27323127793322033  0.5136905089057864  0.3196383450458116  1.0000
  H   H33       1.0  0.7301472714304299  0.11229030096084021  0.7550543203469839  1.0000
  H   H34       1.0  0.7698567399250705  0.6122908626924742  0.7449488246125567  1.0000
  H   H35       1.0  0.2698527277201866  0.8877096986199159  0.2449456793894436  1.0000
  H   H36       1.0  0.23014326024249307  0.3877091374375709  0.25505117598340454  1.0000
  H   H37       1.0  0.8607570342766778  0.7947408026966849  0.5635984264771917  1.0000
  H   H38       1.0  0.6392455010030891  0.29474055826531886  0.9363969010221531  1.0000
  H   H39       1.0  0.13924296589982668  0.20525919743336035  0.4364015734101498  1.0000
  H   H40       1.0  0.36075449917341534  0.7052594418647264  0.06360309886518847  1.0000
  H   H41       1.0  0.879738890862489  0.848773968703901  0.7277568012279508  1.0000
  H   H42       1.0  0.6202707109671769  0.348776507420952  0.7722399443946809  1.0000
  H   H43       1.0  0.12026110930507135  0.15122603087685693  0.27224319936801017  1.0000
  H   H44       1.0  0.3797292892003834  0.651223492159806  0.22776005620128015  1.0000
  H   H45       1.0  0.04510742108831828  0.9503712361749321  0.7801303228014121  1.0000
  H   H46       1.0  0.4548974929228459  0.45036975607891516  0.7198652598737667  1.0000
  H   H47       1.0  0.9548925780533608  0.04962876395511141  0.2198696776436354  1.0000
  H   H48       1.0  0.5451025072536552  0.5496302435018429  0.2801347400135744  1.0000
  H   H49       1.0  0.19155532172725534  0.9964632464314609  0.6695433757247601  1.0000
  H   H50       1.0  0.3084456895268226  0.4964566495697616  0.8304503897772278  1.0000
  H   H51       1.0  0.8084446784403082  0.003536753698584236  0.3304566248712012  1.0000
  H   H52       1.0  0.6915543106496818  0.5035433505602838  0.16954961011011377  1.0000
  H   H53       1.0  0.7754370871215325  0.8173948940119997  0.39196445871823166  1.0000
  H   H54       1.0  0.7245661022794249  0.3173907352919199  0.1080365195175669  1.0000
  H   H55       1.0  0.22456291304602782  0.18260510556875817  0.6080355418777293  1.0000
  H   H56       1.0  0.27543389789707956  0.6826092648381253  0.8919634803697747  1.0000
  H   H57       1.0  0.6922154188799163  0.7454573000524317  0.20921030064126445  1.0000
  H   H58       1.0  0.8077841239460243  0.2454567553597193  0.2907929628046588  1.0000
  H   H59       1.0  0.30778458129658803  0.25454270007761354  0.7907896992460771  1.0000
  H   H60       1.0  0.1922158752045922  0.7545432442210371  0.7092070369317688  1.0000
  H   H61       1.0  0.7918710517577573  0.7011065110894386  0.07074485557106161  1.0000
  H   H62       1.0  0.7081254375537104  0.20110382262239693  0.42925967035300006  1.0000
  H   H63       1.0  0.20812894739285917  0.2988934884913178  0.9292551441653659  1.0000
  H   H64       1.0  0.29187456262279066  0.7988961769583611  0.5707403295343412  1.0000
  H   H65       1.0  0.04147879985305929  0.7063841739991069  0.076207561880455  1.0000
  H   H66       1.0  0.45852053784095065  0.20638250729924806  0.42379555832366916  1.0000
  H   H67       1.0  0.9585212003234451  0.29361582613093834  0.9237924380068865  1.0000
  H   H68       1.0  0.5414794613096657  0.7936174922815084  0.5762044414127584  1.0000
  H   H69       1.0  0.20095154977407192  0.7621493251649611  0.21514342918817722  1.0000
  H   H70       1.0  0.29905132599041134  0.26214830182482934  0.28485923558475207  1.0000
  H   H71       1.0  0.7990484493765478  0.2378506749650823  0.7848565705482505  1.0000
  H   H72       1.0  0.7009486741771523  0.7378516983052159  0.7151407650112093  1.0000
  H   H73       1.0  0.7103107197350794  0.43235354742820015  0.33043327126980854  1.0000
  H   H74       1.0  0.7896877893049474  0.9323533649556921  0.16956664214715358  1.0000
  H   H75       1.0  0.28968928044142495  0.5676464527018451  0.6695667286175331  1.0000
  H   H76       1.0  0.21031220983673152  0.06764663517435146  0.830433358297894  1.0000
  H   H77       1.0  0.8249370505618171  0.5076975054903129  0.33264745805962864  1.0000
  H   H78       1.0  0.6750629294286286  0.007697496713076457  0.16735069127994212  1.0000
  H   H79       1.0  0.1750629496146872  0.4923024946397324  0.6673525418277128  1.0000
  H   H80       1.0  0.3249370707478758  0.9923025034169688  0.8326493086073994  1.0000
  H   H81       1.0  0.8724450445181494  0.4181635509035463  0.29796111785215224  1.0000
  H   H82       1.0  0.6275526352539214  0.9181628277454209  0.20203777954215157  1.0000
  H   H83       1.0  0.12755495565835506  0.5818364492264989  0.7020388820351893  1.0000
  H   H84       1.0  0.3724473638966984  0.08183717238462267  0.7979622201942762  1.0000
  H   H85       1.0  0.005790438551905746  0.36277063524000086  0.5535736346418911  1.0000
  H   H86       1.0  0.4942101532326884  0.8627715453529496  0.9464264413617759  1.0000
  H   H87       1.0  0.9942095616245986  0.6372293648900443  0.44642636524545043  1.0000
  H   H88       1.0  0.5057898469438159  0.13722845477709567  0.053573558525565584  1.0000
  H   H89       1.0  0.9140245516492753  0.3178710390317847  0.44620698145848897  1.0000
  H   H90       1.0  0.585974762505724  0.8178723280149709  0.05379472835082363  1.0000
  H   H91       1.0  0.08597544750134449  0.6821289610982588  0.5537930182779389  1.0000
  H   H92       1.0  0.4140252366448957  0.18212767211507272  0.9462052713856043  1.0000
  H   H93       1.0  0.05634313547293801  0.37438555458200723  0.43847069359702234  1.0000
  H   H94       1.0  0.44365613581373553  0.87438384290501  0.06152975338408751  1.0000
  H   H95       1.0  0.9436568647035666  0.625614445548038  0.5615293062903192  1.0000
  H   H96       1.0  0.556343864362769  0.1256161572250353  0.9384702465032541  1.0000
  C   C1        1.0  0.518608987112585  0.1605784294515673  0.6240185399985078  1.0000
  C   C2        1.0  0.9813931117561643  0.6605758747569623  0.8759838327953222  1.0000
  C   C3        1.0  0.4813910130639161  0.8394215701291908  0.3759814598888336  1.0000
  C   C4        1.0  0.01860688842034002  0.339424125373083  0.12401616709201932  1.0000
  C   C5        1.0  0.33672542161382535  0.326304471742498  0.5562548804596966  1.0000
  C   C6        1.0  0.16327758833948272  0.8263036975746246  0.943744747841633  1.0000
  C   C7        1.0  0.663274578562679  0.6736955283875472  0.4437451194276449  1.0000
  C   C8        1.0  0.8367224118370217  0.1736963025554206  0.05625525204570864  1.0000
  C   C9        1.0  0.3936925586365768  0.39242388818406254  0.5341128772496672  1.0000
  C   C10       1.0  0.10630669287007306  0.8924224663335097  0.965884862007786  1.0000
  C   C11       1.0  0.6063074415399243  0.6075761113966954  0.4658871226376741  1.0000
  C   C12       1.0  0.8936933073064312  0.10757753379653559  0.03411513787955535  1.0000
  C   C13       1.0  0.5361866713481216  0.39953297595300824  0.5394955467871063  1.0000
  C   C14       1.0  0.9638115813397253  0.8995284807135918  0.9605013168561451  1.0000
  C   C15       1.0  0.46381332881944204  0.6004670241770369  0.46050445380885496  1.0000
  C   C16       1.0  0.03618841883677899  0.10047151941645344  0.03949868303119633  1.0000
  C   C17       1.0  0.6264751849461022  0.3412444433776569  0.5670143381908181  1.0000
  C   C18       1.0  0.8735242627900484  0.8412396977858793  0.9329823139281679  1.0000
  C   C19       1.0  0.37352481523040204  0.6587555567523883  0.43298566169652336  1.0000
  C   C20       1.0  0.12647573738645596  0.1587603023441661  0.06701768595917368  1.0000
  C   C21       1.0  0.5687037892360046  0.27490224858067497  0.5884598116480767  1.0000
  C   C22       1.0  0.931297902921115  0.7748979036734733  0.9115383649805742  1.0000
  C   C23       1.0  0.4312962099146152  0.7250977515493686  0.41154018808835113  1.0000
  C   C24       1.0  0.06870209725538945  0.22510209645657198  0.08846163490676726  1.0000
  C   C25       1.0  0.425361589932711  0.26688567210600206  0.5829871558316383  1.0000
  C   C26       1.0  0.07464159233227818  0.7668828428613067  0.9170142213092927  1.0000
  C   C27       1.0  0.574638409208968  0.7331143280240414  0.4170128446134094  1.0000
  C   C28       1.0  0.9253584068183415  0.2331171572687369  0.0829857784271352  1.0000
  C   C29       1.0  0.5409334311021223  0.08480966634953344  0.656990539808724  1.0000
  C   C30       1.0  0.9590711181518836  0.5848070686940902  0.8430100265486207  1.0000
  C   C31       1.0  0.4590665690743787  0.9151903332312248  0.3430094600786172  1.0000
  C   C32       1.0  0.040928882024620646  0.4151929314359551  0.15698997333872072  1.0000
  C   C33       1.0  0.4474524575118753  0.027687652068270962  0.6218881394800996  1.0000
  C   C34       1.0  0.05254924630241936  0.5276843932931713  0.8781064343740234  1.0000
  C   C35       1.0  0.5525475426646291  0.9723123480617744  0.3781118604072419  1.0000
  C   C36       1.0  0.9474507538651442  0.4723156068368738  0.1218935662219379  1.0000
  C   C37       1.0  0.47397592331418004  0.9567286337572722  0.6586256825931666  1.0000
  C   C38       1.0  0.026024906324993012  0.45672540745608176  0.8413708042907847  1.0000
  C   C39       1.0  0.5260240768623211  0.04327136582348588  0.34137431729417467  1.0000
  C   C40       1.0  0.9739750938515114  0.5432745926739636  0.15862919559655686  1.0000
  C   C41       1.0  0.5902643384299169  0.9418717006431672  0.7290680439997402  1.0000
  C   C42       1.0  0.9097334666689697  0.4418715258197461  0.7709318173133904  1.0000
  C   C43       1.0  0.40973566072070294  0.058128299486876235  0.2709319557366876  1.0000
  C   C44       1.0  0.09026653350753462  0.5581284743102991  0.22906818257395095  1.0000
  C   C45       1.0  0.6830880479194678  0.997684305428856  0.7638962410038104  1.0000
  C   C46       1.0  0.8169129890593751  0.49768483463985524  0.7361067049702574  1.0000
  C   C47       1.0  0.31691195225703656  0.002315694701189319  0.23610375888353105  1.0000
  C   C48       1.0  0.18308701111712913  0.5023151654901901  0.2638932949170842  1.0000
  C   C49       1.0  0.6582900490400448  0.06840257830520595  0.7277279200808693  1.0000
  C   C50       1.0  0.8417120560432136  0.5684027663147934  0.7722749490750879  1.0000
  C   C51       1.0  0.3417099511364595  0.9315974218248394  0.2722720798064723  1.0000
  C   C52       1.0  0.15828794309846517  0.43159723381525017  0.22772505136995977  1.0000
  C   C53       1.0  0.11286843969510989  0.9207431782578228  0.5552559658449157  1.0000
  C   C54       1.0  0.3871354304964959  0.4207410029074329  0.9447418648091043  1.0000
  C   C55       1.0  0.8871315604813944  0.07925682187222248  0.44474403404242585  1.0000
  C   C56       1.0  0.6128645696800085  0.5792589972226124  0.05525813507823715  1.0000
  C   C57       1.0  0.01690652617976287  0.8637665641065677  0.5238900716492593  1.0000
  C   C58       1.0  0.4830952584392629  0.3637637187442193  0.9761082821010293  1.0000
  C   C59       1.0  0.9830934729708568  0.13623343602347587  0.4761099280871684  1.0000
  C   C60       1.0  0.5169047417372415  0.636236281385826  0.023891717786312147  1.0000
  C   C61       1.0  0.9342277617712537  0.8386801606953441  0.5875996721476239  1.0000
  C   C62       1.0  0.5657757350081564  0.33867873355983147  0.9123954272271769  1.0000
  C   C63       1.0  0.06577223840525068  0.1613198394347011  0.4124003277397177  1.0000
  C   C64       1.0  0.43422426414246335  0.6613212665702121  0.08760457250925102  1.0000
  C   C65       1.0  0.9441402341651178  0.8689699541472362  0.679309560346395  1.0000
  C   C66       1.0  0.5558688190811187  0.36896825192108273  0.8206869545531134  1.0000
  C   C67       1.0  0.05585976601138333  0.1310300454335218  0.32069043954094617  1.0000
  C   C68       1.0  0.44413118109538235  0.6310317476596754  0.17931304533422798  1.0000
  C   C69       1.0  0.03699197570350294  0.9260768359945565  0.7086209832416971  1.0000
  C   C70       1.0  0.4630155601347237  0.42607365382993806  0.7913731690014876  1.0000
  C   C71       1.0  0.9630080244730013  0.07392316413548895  0.2913790166456445  1.0000
  C   C72       1.0  0.5369844390069519  0.5739263457508181  0.20862683144355976  1.0000
  C   C73       1.0  0.1203039129659537  0.9514226000134216  0.6471792589943233  1.0000
  C   C74       1.0  0.3797026164022376  0.45141764826101194  0.8528154600865211  1.0000
  C   C75       1.0  0.8796960872105473  0.04857739956733641  0.35282074089301796  1.0000
  C   C76       1.0  0.6202973837742635  0.5485823513197462  0.14718453980082016  1.0000
  C   C77       1.0  0.9988542858728263  0.8315686011747813  0.42713447306938385  1.0000
  C   C78       1.0  0.5011476175360882  0.3315643437163238  0.07286506745100414  1.0000
  C   C79       1.0  0.0011457143036780687  0.16843139895526407  0.5728655268179577  1.0000
  C   C80       1.0  0.49885238264041626  0.6684356564137216  0.9271349324363373  1.0000
  C   C81       1.0  0.0911482901994926  0.759855317124347  0.21401756925066046  1.0000
  C   C82       1.0  0.40885467624617233  0.25985376655090875  0.2859859398663518  1.0000
  C   C83       1.0  0.9088517089421863  0.24014468300569636  0.7859824311943872  1.0000
  C   C84       1.0  0.591145323930332  0.7401462335791366  0.7140140600209898  1.0000
  C   C85       1.0  0.0008469464825104844  0.7291255179577052  0.13608232653235672  1.0000
  C   C86       1.0  0.4991538268846501  0.22912466105593338  0.3639221690647614  1.0000
  C   C87       1.0  0.9991530536939938  0.2708744821723401  0.8639176733549848  1.0000
  C   C88       1.0  0.5008461732829103  0.7708753385248245  0.6360778315311997  1.0000
  C   C89       1.0  0.8587132835825746  0.7252742255343275  0.13368711010004447  1.0000
  C   C90       1.0  0.6412874635896847  0.22527401210111128  0.36631728772310723  1.0000
  C   C91       1.0  0.14128671659392988  0.2747257745957178  0.866312889787297  1.0000
  C   C92       1.0  0.3587125365868196  0.7747259880289341  0.6336827121642342  1.0000
  C   C93       1.0  0.8016803811399345  0.7504006005651866  0.2102395404269924  1.0000
  C   C94       1.0  0.6983202663020485  0.25040050949341186  0.2897647939019185  1.0000
  C   C95       1.0  0.19831961903656997  0.24959939956485855  0.7897604594603491  1.0000
  C   C96       1.0  0.3016797338744559  0.7495994906366334  0.7102352059854229  1.0000
  C   C97       1.0  0.8926424924974162  0.7807851785780239  0.2889995424112294  1.0000
  C   C98       1.0  0.6073590091360832  0.2807835477349081  0.21100272275171816  1.0000
  C   C99       1.0  0.10735750767908486  0.21921482100273426  0.7110004574761118  1.0000
  C   C100      1.0  0.39264099103148037  0.719216452395137  0.7889972778442432  1.0000
  C   C101      1.0  0.03571877720730682  0.7864888772675884  0.29141071533968993  1.0000
  C   C102      1.0  0.4642836939345075  0.2864861521407377  0.20859103734927015  1.0000
  C   C103      1.0  0.9642812229691976  0.21351112286245685  0.7085892845476516  1.0000
  C   C104      1.0  0.5357163062419935  0.7135138474400203  0.791408962538071  1.0000
  C   C105      1.0  0.8191294142472841  0.4486142343980904  0.34642857397014437  1.0000
  C   C106      1.0  0.6808699585786784  0.9486140414573213  0.15357147931319648  1.0000
  C   C107      1.0  0.18087058592027613  0.5513857651826675  0.6535714266258167  1.0000
  C   C108      1.0  0.31913004159782604  0.051385958672723886  0.8464285205741452  1.0000
  C   C109      1.0  0.8759279852933006  0.4333116175870049  0.45197755360952246  1.0000
  C   C110      1.0  0.6240725248800111  0.9333119100700088  0.04802317452629844  1.0000
  C   C111      1.0  0.12407201487426309  0.5666883825430402  0.5480224469864389  1.0000
  C   C112      1.0  0.37592747529649334  0.06668809006003643  0.9519768253610431  1.0000
  C   C113      1.0  0.9692571011977872  0.3680311272260147  0.4751904409228605  1.0000
  C   C114      1.0  0.5307424768021738  0.8680315055012816  0.024809850600555298  1.0000
  C   C115      1.0  0.03074289795283246  0.6319688729040288  0.5248095588135672  1.0000
  C   C116      1.0  0.4692575233743306  0.13196849462876373  0.9751901492867863  1.0000
  N   N1        1.0  0.6242622429625894  0.2065671613982548  0.6145932982016671  1.0000
  N   N2        1.0  0.87574030159007  0.7065623829474194  0.8854069281189115  1.0000
  N   N3        1.0  0.37573775721391506  0.7934328387317906  0.3854067016856744  1.0000
  N   N4        1.0  0.12425969756054973  0.29343761718262434  0.11459307161751627  1.0000
  N   N5        1.0  0.3973818617993384  0.19506669833439466  0.605293802931231  1.0000
  N   N6        1.0  0.10262169573476433  0.6950647493923982  0.8947092277467933  1.0000
  N   N7        1.0  0.6026181373512813  0.8049333017956488  0.39470619680519675  1.0000
  N   N8        1.0  0.8973783034158554  0.30493525073764544  0.10529077198963453  1.0000
  N   N9        1.0  0.8733899803411165  0.8097100993736339  0.3757964299553716  1.0000
  N   N10       1.0  0.6266116554115646  0.30970610928008063  0.12420423843756227  1.0000
  N   N11       1.0  0.126610019835388  0.19028990075641128  0.6242035699319698  1.0000
  N   N12       1.0  0.37338834476493643  0.6902938903006774  0.875795761449779  1.0000
  N   N13       1.0  0.09897648848989876  0.8183326221003121  0.3783598028443774  1.0000
  N   N14       1.0  0.4010253544960921  0.3183285980454641  0.12164086339149707  1.0000
  N   N15       1.0  0.9010235116776648  0.18166737802973293  0.6216401977515839  1.0000
  N   N16       1.0  0.5989746456804123  0.6816714020845811  0.8783591364958444  1.0000
  O   O1        1.0  0.8453746253021843  0.47202014345282295  0.5160946894030816  1.0000
  O   O2        1.0  0.6546255937130899  0.9720218765800508  0.9839070737302802  1.0000
  O   O3        1.0  0.15462537487432013  0.5279798566772224  0.48390531048426  1.0000
  O   O4        1.0  0.3453744064544736  0.027978123549994176  0.01609292686568112  1.0000
  S   S1        1.0  0.29969276457522476  0.04917027772331472  0.5319846483150561  1.0000
  S   S2        1.0  0.20030816640988158  0.5491683088091256  0.9680048091204208  1.0000
  S   S3        1.0  0.7003072356012796  0.9508297224067306  0.4680153515722854  1.0000
  S   S4        1.0  0.7996918327407381  0.4508316913209179  0.03199519061600707  1.0000
  S   S5        1.0  0.22162375271483367  0.950996679419612  0.4766266564919042  1.0000
  S   S6        1.0  0.27837915510514927  0.45099576629802407  0.02335965983679866  1.0000
  S   S7        1.0  0.7783762474616674  0.049003320161146224  0.5233733433954371  1.0000
  S   S8        1.0  0.7216208450713518  0.549004233282734  0.9766403400505426  1.0000
