data_image0
_chemical_formula_structural       H38C46N4O4S2Cl4
_chemical_formula_sum              "H38 C46 N4 O4 S2 Cl4"
_cell_length_a       7.7671569108705905
_cell_length_b       11.665210192403762
_cell_length_c       13.163630391521234
_cell_angle_alpha    111.93997889949263
_cell_angle_beta     105.58387153958262
_cell_angle_gamma    94.9772112632871

_space_group_name_H-M_alt    "P 1"
_space_group_IT_number       1

loop_
  _space_group_symop_operation_xyz
  'x, y, z'

loop_
  _atom_site_type_symbol
  _atom_site_label
  _atom_site_symmetry_multiplicity
  _atom_site_fract_x
  _atom_site_fract_y
  _atom_site_fract_z
  _atom_site_occupancy
  H   H1        1.0  0.7862734756923188  0.26636785411791236  0.039339969955672564  1.0000
  H   H2        1.0  0.2137265239831231  0.7336321466007077  0.9606600300023287  1.0000
  H   H3        1.0  0.022085346612952583  0.03698319163545142  0.20696616513544175  1.0000
  H   H4        1.0  0.977914654252736  0.9630168082318948  0.7930338348223339  1.0000
  H   H5        1.0  0.27917234221064147  0.06963526096732094  0.42106252411371037  1.0000
  H   H6        1.0  0.7208276574648004  0.9303647397512991  0.5789374758442909  1.0000
  H   H7        1.0  0.8209958452472675  0.8439968189578795  0.04093166265645932  1.0000
  H   H8        1.0  0.17900415433189545  0.15600318090201562  0.9590683373053337  1.0000
  H   H9        1.0  0.954421937061873  0.6932154363587605  0.3362591225887823  1.0000
  H   H10       1.0  0.045578062517290054  0.3067845635011347  0.6637408773730107  1.0000
  H   H11       1.0  0.5886326419157774  0.07347000599324202  0.8710995631647825  1.0000
  H   H12       1.0  0.41136735766338567  0.9265299938666531  0.12890043679701046  1.0000
  H   H13       1.0  0.926692201964083  0.4899747774264558  0.3536292071580886  1.0000
  H   H14       1.0  0.07330779761508004  0.5100252224334394  0.6463707928037045  1.0000
  H   H15       1.0  0.18281515489947958  0.34337595983355584  0.09185735901443287  1.0000
  H   H16       1.0  0.8171848446796833  0.6566240400263393  0.9081426409473601  1.0000
  H   H17       1.0  0.20892778502675377  0.5470079320725306  0.0732682497187587  1.0000
  H   H18       1.0  0.7910722145524094  0.45299206778736456  0.9267317502430343  1.0000
  H   H19       1.0  0.4597801268896181  0.912720051648786  0.34395027554005386  1.0000
  H   H20       1.0  0.5402198726895449  0.08727994821110914  0.6560497244217391  1.0000
  H   H21       1.0  0.7207119021463168  0.3719566827194345  0.4977836814305857  1.0000
  H   H22       1.0  0.27928809871937194  0.628043317147912  0.50221631852719  1.0000
  H   H23       1.0  0.9026108302019459  0.21406016210758713  0.4228118452720024  1.0000
  H   H24       1.0  0.09738916937721723  0.7859398377523081  0.5771881546897907  1.0000
  H   H25       1.0  0.7572237568237905  0.9049922367406295  0.24642151640034643  1.0000
  H   H26       1.0  0.24277624404189826  0.09500776312671692  0.7535784835574293  1.0000
  H   H27       1.0  0.8048163919068061  0.8891128128555469  0.37926951667431985  1.0000
  H   H28       1.0  0.19518360767235685  0.11088718700434827  0.6207304832874732  1.0000
  H   H29       1.0  0.9513666125694826  0.004716765712605475  0.3650232658786591  1.0000
  H   H30       1.0  0.04863338700968032  0.9952832341472899  0.6349767340831339  1.0000
  H   H31       1.0  0.4461014626689642  0.27112748646814266  0.957543682092062  1.0000
  H   H32       1.0  0.5538985369101987  0.7288725133917525  0.04245631786973094  1.0000
  H   H33       1.0  0.5821074154993641  0.4313256096084184  0.16138267281746868  1.0000
  H   H34       1.0  0.41789258536632456  0.5686743902589279  0.8386173271403069  1.0000
  H   H35       1.0  0.36366103746749595  0.3405961712186244  0.79581675419791  1.0000
  H   H36       1.0  0.6363389625634095  0.6594038290360339  0.20418324663011225  1.0000
  H   H37       1.0  0.31305725066465967  0.4330237269545842  0.39934575977432046  1.0000
  H   H38       1.0  0.6869427489145032  0.566976272905311  0.6006542401874725  1.0000
  C   C1        1.0  0.03408982166091567  0.2794413242592334  0.2347006425173008  1.0000
  C   C2        1.0  0.9659101779182473  0.7205586756006618  0.7652993574444922  1.0000
  C   C3        1.0  0.6912015829105965  0.9480613638532789  0.9471945032214618  1.0000
  C   C4        1.0  0.3087984179550922  0.051938636014067376  0.05280549673631389  1.0000
  C   C5        1.0  0.05264905005414368  0.40194311212453454  0.22358107687729692  1.0000
  C   C6        1.0  0.9473509495250192  0.5980568877353607  0.7764189230844961  1.0000
  C   C7        1.0  0.9157643733197149  0.16504194970996838  0.13574110159920597  1.0000
  C   C8        1.0  0.08423562625944807  0.8349580501499269  0.8642588983625871  1.0000
  C   C9        1.0  0.49111092775569903  0.22941906567852316  0.46527558554038084  1.0000
  C   C10       1.0  0.5088890731099897  0.7705809341888233  0.5347244144173948  1.0000
  C   C11       1.0  0.7936639019983672  0.17387507086848328  0.039969580858994214  1.0000
  C   C12       1.0  0.20633609803253822  0.8261249293861751  0.9600304199690278  1.0000
  C   C13       1.0  0.9240028550637874  0.0445665741285824  0.13438890856235952  1.0000
  C   C14       1.0  0.07599714451537551  0.9554334257313127  0.8656110913994334  1.0000
  C   C15       1.0  0.4146921578241793  0.10036830299831129  0.4197644210398016  1.0000
  C   C16       1.0  0.5853078417549837  0.8996316968615838  0.5802355789219913  1.0000
  C   C17       1.0  0.8119746482820386  0.9367768075229992  0.04151303184856215  1.0000
  C   C18       1.0  0.18802535129712436  0.06322319233689587  0.9584869681132309  1.0000
  C   C19       1.0  0.004517301469977859  0.6169019635368104  0.2827302431565815  1.0000
  C   C20       1.0  0.995482698205464  0.3830980371818097  0.7172697568014197  1.0000
  C   C21       1.0  0.6817650671842491  0.06628093276321892  0.9456763853057631  1.0000
  C   C22       1.0  0.31823493368143957  0.9337190671041272  0.05432361465201241  1.0000
  C   C23       1.0  0.9896288656884985  0.5019468757881603  0.2924371112879305  1.0000
  C   C24       1.0  0.010371133890664524  0.49805312407173485  0.7075628886738625  1.0000
  C   C25       1.0  0.08285420489893543  0.6314632945334583  0.20352296238991424  1.0000
  C   C26       1.0  0.9171457947765065  0.36853670618516193  0.7964770375680871  1.0000
  C   C27       1.0  0.1308633177328799  0.4193244817417691  0.14464571645036528  1.0000
  C   C28       1.0  0.8691366831328089  0.5806755181255773  0.8553542835074104  1.0000
  C   C29       1.0  0.6954544096864576  0.05305498010471517  0.3805627102948766  1.0000
  C   C30       1.0  0.3045455911792312  0.9469450197626312  0.619437289662899  1.0000
  C   C31       1.0  0.14671332353187888  0.5338032239967914  0.1340413046300038  1.0000
  C   C32       1.0  0.8532866773338098  0.46619677587055486  0.8659586953277718  1.0000
  C   C33       1.0  0.5174175607218794  0.013362433467115357  0.3773424025950367  1.0000
  C   C34       1.0  0.4825824388572835  0.9866375663927798  0.6226575973667563  1.0000
  C   C35       1.0  0.6643332018740845  0.27136387666566236  0.46416674679896125  1.0000
  C   C36       1.0  0.3356667989916042  0.728636123201684  0.5358332531588145  1.0000
  C   C37       1.0  0.7657524586413248  0.18286804407609916  0.42236111076227684  1.0000
  C   C38       1.0  0.234247542224364  0.8171319557912472  0.5776388891954988  1.0000
  C   C39       1.0  0.8086657410875895  0.9581372062056971  0.34114639022341897  1.0000
  C   C40       1.0  0.19133425977809923  0.04186279366164932  0.6588536097343567  1.0000
  C   C41       1.0  0.4694873933190495  0.3715012674443511  0.9760076144690689  1.0000
  C   C42       1.0  0.5305126062601134  0.6284987324155441  0.023992385492724113  1.0000
  C   C43       1.0  0.5472711624893858  0.46119362190733587  0.09054821711732526  1.0000
  C   C44       1.0  0.4527288383763028  0.5388063779600105  0.9094517828404504  1.0000
  C   C45       1.0  0.42226976795797777  0.4100886018741184  0.8853803653334898  1.0000
  C   C46       1.0  0.5777302316211854  0.589911397985777  0.11461963462830327  1.0000
  N   N1        1.0  0.1160814526606749  0.26750175932431197  0.3290813524737432  1.0000
  N   N2        1.0  0.8839185469184879  0.7324982405355831  0.6709186474880497  1.0000
  N   N3        1.0  0.23679269042148013  0.37202486091754333  0.41934496807724025  1.0000
  N   N4        1.0  0.7632073091576828  0.6279751389423519  0.5806550318845527  1.0000
  O   O1        1.0  0.48840329630015106  0.46022951333532003  0.6045402132318862  1.0000
  O   O2        1.0  0.5115967045655376  0.5397704865320263  0.39545978672588955  1.0000
  O   O3        1.0  0.2432557595021383  0.2800071913472862  0.5644842056609188  1.0000
  O   O4        1.0  0.7567442400770248  0.719992808512609  0.4355157943008742  1.0000
  S   S1        1.0  0.3663476441814615  0.3397607956651673  0.5253786133507535  1.0000
  S   S2        1.0  0.6336523554939804  0.6602392050534529  0.4746213866072477  1.0000
  Cl  Cl1       1.0  0.5555139722483606  0.8132854346117523  0.8297288167891065  1.0000
  Cl  Cl2       1.0  0.44448602742708127  0.18671456610686785  0.17027118316889475  1.0000
  Cl  Cl3       1.0  0.10096091396014363  0.7744008697516955  0.19048413076000104  1.0000
  Cl  Cl4       1.0  0.8990390857152983  0.22559913096692477  0.8095158691980002  1.0000
