data_image0
_chemical_formula_structural       H44C38N4O10
_chemical_formula_sum              "H44 C38 N4 O10"
_cell_length_a       5.173130043185672
_cell_length_b       10.851078832330389
_cell_length_c       15.506298520082789
_cell_angle_alpha    83.43281419519367
_cell_angle_beta     89.17915348600006
_cell_angle_gamma    80.91443139282846

_space_group_name_H-M_alt    "P 1"
_space_group_IT_number       1

loop_
  _space_group_symop_operation_xyz
  'x, y, z'

loop_
  _atom_site_type_symbol
  _atom_site_label
  _atom_site_symmetry_multiplicity
  _atom_site_fract_x
  _atom_site_fract_y
  _atom_site_fract_z
  _atom_site_occupancy
  H   H1        1.0  0.9291072605841304  0.659438882510709  0.23085429692486217  1.0000
  H   H2        1.0  0.07088957414069202  0.34055952377643517  0.7691465897637566  1.0000
  H   H3        1.0  0.2893589774381912  0.6806852983501032  0.04320094523013851  1.0000
  H   H4        1.0  0.7106446276671319  0.3193112049682533  0.9568006457862679  1.0000
  H   H5        1.0  0.576629839862044  0.6781385560330374  0.1244974158362837  1.0000
  H   H6        1.0  0.4233676316472416  0.32186044008556647  0.8755044909733689  1.0000
  H   H7        1.0  0.06489064529388834  0.6020368016358175  0.9950624338827828  1.0000
  H   H8        1.0  0.9351091340645121  0.3979614311549878  0.004937826405338303  1.0000
  H   H9        1.0  0.08099331203462917  0.4525654150394163  0.31853627650142285  1.0000
  H   H10       1.0  0.9190039126975519  0.5474333239941713  0.6814649777466276  1.0000
  H   H11       1.0  0.8716174673172334  0.26729742797109873  0.2976460761992611  1.0000
  H   H12       1.0  0.12837999831576763  0.7327012323225369  0.7023555308848173  1.0000
  H   H13       1.0  0.3555348920200726  0.29720577434159373  0.14237059406800145  1.0000
  H   H14       1.0  0.6444622623247521  0.7027934945636684  0.8576294003184476  1.0000
  H   H15       1.0  0.1672877029064703  0.11947097323950302  0.19084219814773035  1.0000
  H   H16       1.0  0.8327182499475512  0.8805279556233626  0.8091593518597826  1.0000
  H   H17       1.0  0.36509523975438907  0.7210164213460305  0.30645517856049165  1.0000
  H   H18       1.0  0.6349051188024075  0.2789848403005125  0.6935435769077789  1.0000
  H   H19       1.0  0.034408617220773687  0.9303085818122353  0.29007276087283157  1.0000
  H   H20       1.0  0.9655943343700341  0.06969051553218959  0.709926877909045  1.0000
  H   H21       1.0  0.8586688386530922  0.9475238259129445  0.41730396949972  1.0000
  H   H22       1.0  0.14133085657527214  0.0524788944427723  0.5826949974558706  1.0000
  H   H23       1.0  0.35973955863322554  0.09471552231116544  0.03320251402162836  1.0000
  H   H24       1.0  0.6402674233096343  0.9052824252189907  0.9667969127053633  1.0000
  H   H25       1.0  0.7665940644451412  0.05900410391452148  0.2791812926705294  1.0000
  H   H26       1.0  0.23341138908861417  0.9409970436691766  0.7208156687167364  1.0000
  H   H27       1.0  0.4432049100981292  0.7037362413037979  0.5845285381598483  1.0000
  H   H28       1.0  0.556795860658206  0.29626603292798687  0.41547000792105376  1.0000
  H   H29       1.0  0.7140723033974593  0.8269086830168235  0.647218786953532  1.0000
  H   H30       1.0  0.2859258441264546  0.1730928810481733  0.3527795542218913  1.0000
  H   H31       1.0  0.9989074717636224  0.8470793665598559  0.5837989538570612  1.0000
  H   H32       1.0  0.0010910993424255375  0.15292257716705995  0.4162004279560108  1.0000
  H   H33       1.0  0.7369809322566959  0.9736601007254801  0.5862553432643741  1.0000
  H   H34       1.0  0.2630170862035405  0.026341841299973218  0.41374399717126453  1.0000
  H   H35       1.0  0.9282449984769665  0.18636040716443814  0.10970927197629766  1.0000
  H   H36       1.0  0.07176582104816998  0.8136382483536323  0.8902895529614968  1.0000
  H   H37       1.0  0.020166622338259263  0.6344286082188466  0.42161828483739583  1.0000
  H   H38       1.0  0.9798334272082848  0.36557358006484003  0.5783817645721664  1.0000
  H   H39       1.0  0.14726734345581002  0.5869893904670517  0.5280266653743727  1.0000
  H   H40       1.0  0.8527342941183347  0.413013796910994  0.47197281988795553  1.0000
  H   H41       1.0  0.2979512791253683  0.5154027849546017  0.43919763217700636  1.0000
  H   H42       1.0  0.7020471441255431  0.48459867578222754  0.5608025192374632  1.0000
  H   H43       1.0  0.7120379074104356  0.008589619718415412  0.12398947040138897  1.0000
  H   H44       1.0  0.28797214858844095  0.9914089804940118  0.8760080037802046  1.0000
  C   C1        1.0  0.602117774442426  0.3675297641611444  0.20035379454074081  1.0000
  C   C2        1.0  0.3978783137223568  0.6324686757676004  0.799647181090147  1.0000
  C   C3        1.0  0.5156532843618096  0.48443620430491685  0.15012530064370444  1.0000
  C   C4        1.0  0.4843444155581255  0.5155629192970559  0.8498760919791015  1.0000
  C   C5        1.0  0.6374918093570358  0.5879651938185863  0.16283091508293124  1.0000
  C   C6        1.0  0.3625039631965584  0.4120337471386774  0.8371707836154855  1.0000
  C   C7        1.0  0.8051077343279618  0.3579592338505325  0.26078369077419994  1.0000
  C   C8        1.0  0.19488815329883805  0.6420398861056583  0.739217719661892  1.0000
  C   C9        1.0  0.3049344071631444  0.4916289427502498  0.08566921488690832  1.0000
  C   C10       1.0  0.6950663742832668  0.5083673757819464  0.9143319920076488  1.0000
  C   C11       1.0  0.8379378819260856  0.5777185746671909  0.2230482557675975  1.0000
  C   C12       1.0  0.162058190921121  0.4222809084424292  0.7769527888425128  1.0000
  C   C13       1.0  0.9215144507138935  0.46201918819768256  0.2718969739170687  1.0000
  C   C14       1.0  0.07848084616193748  0.5379797859011237  0.7281041080678405  1.0000
  C   C15       1.0  0.4901006414594575  0.7427482336473026  0.5191936331097725  1.0000
  C   C16       1.0  0.5098986705029498  0.25725423311651563  0.4808050261098945  1.0000
  C   C17       1.0  0.442914334201944  0.7516744659874116  0.3639834964087085  1.0000
  C   C18       1.0  0.5570865988194265  0.24832588287689983  0.6360155818950556  1.0000
  C   C19       1.0  0.6155926614567531  0.8395755660601255  0.353087180783795  1.0000
  C   C20       1.0  0.3844086494851749  0.16042558438606178  0.6469118554369313  1.0000
  C   C21       1.0  0.7252517654460926  0.8790923262472676  0.42501491489963894  1.0000
  C   C22       1.0  0.27474944737554596  0.12090974500881452  0.5749843937234205  1.0000
  C   C23       1.0  0.8976442400786251  0.992780961290823  0.15994093135093287  1.0000
  C   C24       1.0  0.10236339906120198  0.007219678514226974  0.8400585729197666  1.0000
  C   C25       1.0  0.23654936266972407  0.9232077179726174  0.07212875504352316  1.0000
  C   C26       1.0  0.7634568121301537  0.07679247949437303  0.9278720881373086  1.0000
  C   C27       1.0  0.8490251882288707  0.9688582779430172  0.255660941680521  1.0000
  C   C28       1.0  0.15097841784930294  0.031141381567996267  0.7443381877713777  1.0000
  C   C29       1.0  0.37922489114772767  0.7023197756621974  0.4472888084065424  1.0000
  C   C30       1.0  0.620775412684927  0.29768194341458737  0.5527102957140274  1.0000
  C   C31       1.0  0.055356748604892786  0.10012620674378785  0.1354063348078943  1.0000
  C   C32       1.0  0.9446558490646948  0.8998744047245035  0.8645939363752443  1.0000
  C   C33       1.0  0.7843986512686366  0.8713972559613046  0.5860662973929929  1.0000
  C   C34       1.0  0.2156005524916361  0.12860505338448813  0.4139326540660924  1.0000
  C   C35       1.0  0.20120954503249916  0.6050276487383259  0.45966233011824364  1.0000
  C   C36       1.0  0.7987903472774269  0.39497418217526326  0.5403371551781173  1.0000
  C   C37       1.0  0.6626047327318378  0.8301848385080661  0.5089667430709512  1.0000
  C   C38       1.0  0.33739521523553256  0.16981727947010528  0.4910319461633296  1.0000
  N   N1        1.0  0.21844481625150597  0.5992637558541776  0.03745585832248033  1.0000
  N   N2        1.0  0.7815554506845573  0.4007343109713029  0.9625446168924946  1.0000
  N   N3        1.0  0.22800285741791673  0.04799923173624996  0.06950851574161125  1.0000
  N   N4        1.0  0.772011192537325  0.9519991391127759  0.9304929066187004  1.0000
  O   O1        1.0  0.20731948026771047  0.3924159996931663  0.07618726804521543  1.0000
  O   O2        1.0  0.7926812561612882  0.6075824185243581  0.9238136101585686  1.0000
  O   O3        1.0  0.4942453602894442  0.2641503531873737  0.19043659015662845  1.0000
  O   O4        1.0  0.5057520258732567  0.7358486834190074  0.8095636505441224  1.0000
  O   O5        1.0  0.381153804550015  0.8487149589604699  0.03023461093402971  1.0000
  O   O6        1.0  0.6188491657114226  0.15128467545102697  0.9697667070326831  1.0000
  O   O7        1.0  0.6663671909998593  0.8825934625444025  0.26853016011863584  1.0000
  O   O8        1.0  0.3336364459140259  0.11740675899331894  0.7314689638242122  1.0000
  O   O9        1.0  0.05742171525626566  0.8822454131440078  0.12890492130771225  1.0000
  O   O10       1.0  0.9425887398598681  0.11775359401544104  0.8710963541548026  1.0000
