data_image0
_chemical_formula_structural       H46C50N8O18S4Cl4
_chemical_formula_sum              "H46 C50 N8 O18 S4 Cl4"
_cell_length_a       7.134501253244061
_cell_length_b       13.262272218847514
_cell_length_c       14.534118562978133
_cell_angle_alpha    88.55293536771904
_cell_angle_beta     78.81694468473219
_cell_angle_gamma    85.00744838914872

_space_group_name_H-M_alt    "P 1"
_space_group_IT_number       1

loop_
  _space_group_symop_operation_xyz
  'x, y, z'

loop_
  _atom_site_type_symbol
  _atom_site_label
  _atom_site_symmetry_multiplicity
  _atom_site_fract_x
  _atom_site_fract_y
  _atom_site_fract_z
  _atom_site_occupancy
  H   H1        1.0  0.19658686474483847  0.5913736253489166  0.4382609558636719  1.0000
  H   H2        1.0  0.8034131356204316  0.40862637439036253  0.5617390441463496  1.0000
  H   H3        1.0  0.0077762347366972205  0.08393169160041039  0.7755473271010718  1.0000
  H   H4        1.0  0.9922237656285727  0.9160683081388687  0.2244526729089497  1.0000
  H   H5        1.0  0.18385206351355474  0.4858814136562231  0.5826666240254649  1.0000
  H   H6        1.0  0.8161479368517152  0.5141185860830559  0.4173333759845567  1.0000
  H   H7        1.0  0.5480866994216161  0.2546577989206549  0.43943539247864766  1.0000
  H   H8        1.0  0.4519132995442213  0.7453422008147786  0.5605646075274638  1.0000
  H   H9        1.0  0.6787539388558087  0.6987265184305667  0.855840902467163  1.0000
  H   H10       1.0  0.3212460613779234  0.30127348206553184  0.1441590975475771  1.0000
  H   H11       1.0  0.34932215063989525  0.35973716342791456  0.6587942735428927  1.0000
  H   H12       1.0  0.6506778497253747  0.6402628363113646  0.3412057264671289  1.0000
  H   H13       1.0  0.475387100623764  0.25337992127127823  0.5950181116720219  1.0000
  H   H14       1.0  0.524612899609968  0.7466200792248203  0.4049818883427184  1.0000
  H   H15       1.0  0.5776420822040883  0.3496084933327549  0.28793285896559057  1.0000
  H   H16       1.0  0.42235791802964384  0.6503915071633435  0.7120671410491497  1.0000
  H   H17       1.0  0.29042861419958366  0.9427500439820851  0.9954744693234489  1.0000
  H   H18       1.0  0.7095713861656863  0.057249955757194056  0.004525530686572678  1.0000
  H   H19       1.0  0.368600802765842  0.043819316150487155  0.8487611787859473  1.0000
  H   H20       1.0  0.6313991974678902  0.9561806843456114  0.15123882122879298  1.0000
  H   H21       1.0  0.746074054485995  0.8100723504907369  0.716444184048841  1.0000
  H   H22       1.0  0.25392594574773714  0.18992765000536152  0.2835558159658993  1.0000
  H   H23       1.0  0.03661742009461909  0.30651862648128303  0.6332089354362348  1.0000
  H   H24       1.0  0.9633825802706508  0.6934813732579961  0.3667910645737868  1.0000
  H   H25       1.0  0.15328613700396593  0.2056963614560377  0.5621472697812794  1.0000
  H   H26       1.0  0.8467138633613042  0.7943036382832415  0.43785273022874216  1.0000
  H   H27       1.0  0.8087289640399756  0.04901479191222752  0.3956059274606634  1.0000
  H   H28       1.0  0.191271034794324  0.9509852085800254  0.6043940725501669  1.0000
  H   H29       1.0  0.48316133691793023  0.05044110920357873  0.6946903382373608  1.0000
  H   H30       1.0  0.5168386619163693  0.949558891288674  0.30530966177346947  1.0000
  H   H31       1.0  0.7162082561243732  0.05004416317578379  0.718419571001867  1.0000
  H   H32       1.0  0.28379174424089665  0.9499558365634952  0.28158042900815455  1.0000
  H   H33       1.0  0.6018103670525732  0.8932541416727373  0.5918548589289067  1.0000
  H   H34       1.0  0.39818963191326434  0.10674585806269622  0.4081451410772049  1.0000
  H   H35       1.0  0.8391884522532886  0.9130383617318127  0.6026457637648112  1.0000
  H   H36       1.0  0.16081154671254874  0.0869616380036207  0.3973542362413003  1.0000
  H   H37       1.0  0.9558528589327903  0.6294313981237039  0.7075995840322746  1.0000
  H   H38       1.0  0.044147141432479525  0.3705686016155752  0.29240041597774696  1.0000
  H   H39       1.0  0.0017803497301981342  0.3540232631419861  0.8960454007518389  1.0000
  H   H40       1.0  0.9982196506350717  0.645976736597293  0.10395459925818272  1.0000
  H   H41       1.0  0.9750870523014171  0.8419539392049621  0.9375685550801238  1.0000
  H   H42       1.0  0.024912948063852757  0.15804606053431702  0.06243144492989766  1.0000
  H   H43       1.0  0.12664543759913843  0.8876853416825475  0.7427681148471809  1.0000
  H   H44       1.0  0.8733545626345938  0.11231465881355099  0.2572318851675594  1.0000
  H   H45       1.0  0.14116456377347275  0.8105222304829411  0.6589478431549252  1.0000
  H   H46       1.0  0.8588354365917971  0.18947776925633802  0.3410521568550963  1.0000
  C   C1        1.0  0.4507008447770859  0.7461237633294429  0.02139152305124279  1.0000
  C   C2        1.0  0.5492991554566462  0.25387623716665575  0.9786084769634974  1.0000
  C   C3        1.0  0.27370874829676634  0.5165838669317162  0.4340091482453986  1.0000
  C   C4        1.0  0.7262912520685035  0.48341613280756296  0.5659908517646229  1.0000
  C   C5        1.0  0.46809948227733034  0.6097568307813139  0.1073065206357426  1.0000
  C   C6        1.0  0.5319005179564018  0.39024316971478457  0.8926934793789977  1.0000
  C   C7        1.0  0.36787437916815385  0.675862698844955  0.1785148702471212  1.0000
  C   C8        1.0  0.6321256210655783  0.3241373016511435  0.821485129767619  1.0000
  C   C9        1.0  0.3953865221230586  0.5404715695589521  0.26451229316590796  1.0000
  C   C10       1.0  0.6046134768427789  0.4595284301764813  0.7354877068402036  1.0000
  C   C11       1.0  0.26502670889333463  0.4594754933813455  0.5148831188552643  1.0000
  C   C12       1.0  0.7349732914719352  0.5405245063579336  0.48511688115475726  1.0000
  C   C13       1.0  0.47087663273041014  0.3284137950733741  0.4335218266402869  1.0000
  C   C14       1.0  0.529123367503322  0.6715862054227242  0.5664781733744533  1.0000
  C   C15       1.0  0.6072653598815678  0.7745064979750106  0.8575751365838431  1.0000
  C   C16       1.0  0.392734640483702  0.22549350176426858  0.14242486342617847  1.0000
  C   C17       1.0  0.3839807825327971  0.4786427625718455  0.34892830708200107  1.0000
  C   C18       1.0  0.6160192178324729  0.5213572371674335  0.6510716929280204  1.0000
  C   C19       1.0  0.34874997517539325  0.30743941182395507  0.6020201475170263  1.0000
  C   C20       1.0  0.6512500251898768  0.692560587915324  0.3979798524929953  1.0000
  C   C21       1.0  0.48418076657917186  0.3825253382304084  0.35029967627868974  1.0000
  C   C22       1.0  0.5158192323866655  0.6174746615050251  0.6497003237274218  1.0000
  C   C23       1.0  0.39508531384821605  0.9100137155052168  0.9364764497822547  1.0000
  C   C24       1.0  0.6049146865170538  0.08998628423406231  0.0635235502277668  1.0000
  C   C25       1.0  0.4826570475605325  0.8111670883178963  0.9388900335194109  1.0000
  C   C26       1.0  0.5173429528047373  0.18883291142138287  0.061109966490610707  1.0000
  C   C27       1.0  0.4359668969302498  0.9677805901037445  0.8557889952502321  1.0000
  C   C28       1.0  0.56403310343502  0.03221940963553456  0.1442110047597895  1.0000
  C   C29       1.0  0.6459627222072388  0.8358344675704082  0.7795166213146163  1.0000
  C   C30       1.0  0.3540372766270608  0.16416553292184463  0.2204833786962139  1.0000
  C   C31       1.0  0.16572198522998968  0.2530686471781434  0.6212767024377867  1.0000
  C   C32       1.0  0.8342780150037425  0.746931353317955  0.3787232975769535  1.0000
  C   C33       1.0  0.7013428251418801  0.027832888274775404  0.5270393053561111  1.0000
  C   C34       1.0  0.2986571755063796  0.9721671114761038  0.47296069395255835  1.0000
  C   C35       1.0  0.15906046748839334  0.18605725747827478  0.7068215946150531  1.0000
  C   C36       1.0  0.8409395327453388  0.8139427430178237  0.2931784053996871  1.0000
  C   C37       1.0  0.6126492985191131  0.0015546017377242218  0.699353993491575  1.0000
  C   C38       1.0  0.38735070031518654  0.9984453987545286  0.30064600651925527  1.0000
  C   C39       1.0  0.694721651247706  0.9507332813612879  0.6062736799020721  1.0000
  C   C40       1.0  0.3052783475865935  0.04926671913096488  0.393726320108758  1.0000
  C   C41       1.0  0.00084165145752507  0.41809573569611813  0.9416403771865893  1.0000
  C   C42       1.0  0.9991583473767746  0.5819042647961347  0.05835962282424092  1.0000
  C   C43       1.0  0.059936903934278404  0.6999887100600648  0.9210818589541544  1.0000
  C   C44       1.0  0.9400630962994538  0.30001129043603364  0.07891814106058584  1.0000
  C   C45       1.0  0.017039126292665203  0.5151122213294813  0.9028348788284907  1.0000
  C   C46       1.0  0.9829608740726047  0.48488777840979774  0.097165121181531  1.0000
  C   C47       1.0  0.018382989863680414  0.5976717790688518  0.9616945411906868  1.0000
  C   C48       1.0  0.981617009102157  0.40232822066658164  0.0383054588154248  1.0000
  C   C49       1.0  0.029141284087113972  0.5281506567201927  0.7991667086211461  1.0000
  C   C50       1.0  0.9708587162781559  0.4718493430190865  0.2008332913888754  1.0000
  N   N1        1.0  0.561296550221532  0.9312636930127568  0.7791807746575949  1.0000
  N   N2        1.0  0.43870345001220007  0.06873630748334172  0.22081922535714538  1.0000
  N   N3        1.0  0.3259600772816298  0.6370677241349024  0.2658056258570666  1.0000
  N   N4        1.0  0.6740399230836401  0.36293227560437674  0.7341943741529551  1.0000
  N   N5        1.0  0.3628784365907582  0.3669421063116043  0.5139725304252231  1.0000
  N   N6        1.0  0.6371215637745116  0.6330578934276749  0.48602746958479853  1.0000
  N   N7        1.0  0.5142614018934828  0.6487672191474226  0.020228230663105112  1.0000
  N   N8        1.0  0.48573859847178713  0.35123278059185636  0.9797717693469166  1.0000
  O   O1        1.0  0.004498497093624093  0.13293706380932607  0.7213875884339385  1.0000
  O   O2        1.0  0.9955015031401082  0.8670629366867725  0.27861241158080163  1.0000
  O   O3        1.0  0.2799171131653304  0.17962881001596026  0.7570624364745654  1.0000
  O   O4        1.0  0.7200828871999396  0.8203711897233187  0.24293756353545612  1.0000
  O   O5        1.0  0.6074339907131429  0.11085469162344307  0.5348885147511042  1.0000
  O   O6        1.0  0.39256600952058923  0.8891453088726553  0.465111485263636  1.0000
  O   O7        1.0  0.8134341064824612  0.9946672549119039  0.44818737829415217  1.0000
  O   O8        1.0  0.18656589388280867  0.005332744827375247  0.5518126217158694  1.0000
  O   O9        1.0  0.9184679164787927  0.6071302987318055  0.7772133565150245  1.0000
  O   O10       1.0  0.08153208388647729  0.3928697010074737  0.222786643494997  1.0000
  O   O11       1.0  0.9542134671012688  0.774792911204845  0.9715547828348294  1.0000
  O   O12       1.0  0.04578653313246341  0.2252070892912536  0.028445217179910828  1.0000
  O   O13       1.0  0.18281406736015038  0.7118629943144411  0.8506051520447869  1.0000
  O   O14       1.0  0.8171859330051195  0.2881370054248379  0.14939484796523467  1.0000
  O   O15       1.0  0.12836425890386752  0.46910379393593843  0.7418749788048824  1.0000
  O   O16       1.0  0.8716357414614023  0.5308962058033406  0.25812502120513914  1.0000
  O   O17       1.0  0.20019365372862571  0.8693603171163545  0.6796046625897112  1.0000
  O   O18       1.0  0.7998063465051064  0.13063968337974385  0.320395337425029  1.0000
  S   S1        1.0  0.5091334518554158  0.4921342044256029  0.15478422131314726  1.0000
  S   S2        1.0  0.49086654711042177  0.5078657953098306  0.8452157786929642  1.0000
  S   S3        1.0  0.32938850911246037  0.7938151521953035  0.13034267050405318  1.0000
  S   S4        1.0  0.6706114912528094  0.20618484754397556  0.8696573295059684  1.0000
  Cl  Cl1       1.0  0.9583331658303604  0.9704800593543551  0.8668816153738611  1.0000
  Cl  Cl2       1.0  0.04166683440337155  0.029519941141743302  0.1331183846408792  1.0000
  Cl  Cl3       1.0  0.016203645929760473  0.7012330911329266  0.5945766647741262  1.0000
  Cl  Cl4       1.0  0.9837963543039717  0.29876690936317185  0.405423335240614  1.0000
