data_image0
_chemical_formula_structural       H72C56N12O12S4Br4
_chemical_formula_sum              "H72 C56 N12 O12 S4 Br4"
_cell_length_a       19.800455311415565
_cell_length_b       7.414672222098068
_cell_length_c       11.444605885846132
_cell_angle_alpha    90.0
_cell_angle_beta     90.0
_cell_angle_gamma    90.0

_space_group_name_H-M_alt    "P 1"
_space_group_IT_number       1

loop_
  _space_group_symop_operation_xyz
  'x, y, z'

loop_
  _atom_site_type_symbol
  _atom_site_label
  _atom_site_symmetry_multiplicity
  _atom_site_fract_x
  _atom_site_fract_y
  _atom_site_fract_z
  _atom_site_occupancy
  H   H1        1.0  0.7108310697221928  0.48401826709266144  0.7052386015303379  1.0000
  H   H2        1.0  0.2891689302063157  0.5159817339730542  0.20523860178574785  1.0000
  H   H3        1.0  0.7891689304230893  0.48401826709266144  0.20523860178574785  1.0000
  H   H4        1.0  0.210831070010458  0.5159817339730542  0.7052386015303379  1.0000
  H   H5        1.0  0.8285760207009653  0.8473559911758566  0.010843978485400205  1.0000
  H   H6        1.0  0.17142397922754324  0.15264400854118165  0.5108439791037644  1.0000
  H   H7        1.0  0.6714239794443169  0.8473559911758566  0.5108439791037644  1.0000
  H   H8        1.0  0.32857602098923044  0.15264400854118165  0.010843978485400205  1.0000
  H   H9        1.0  0.8332749161827453  0.5525053983897896  0.6856290158234547  1.0000
  H   H10       1.0  0.1667250837457631  0.44749460267592595  0.18562901520509054  1.0000
  H   H11       1.0  0.6667250839625368  0.5525053983897896  0.18562901520509054  1.0000
  H   H12       1.0  0.33327491596597164  0.44749460267592595  0.6856290158234547  1.0000
  H   H13       1.0  0.7062064068768285  0.7782844780112352  0.03173145354433942  1.0000
  H   H14       1.0  0.29379359305167996  0.22171552170580316  0.5317314532889296  1.0000
  H   H15       1.0  0.7937935927634148  0.7782844780112352  0.5317314532889296  1.0000
  H   H16       1.0  0.20620640716509367  0.22171552170580316  0.03173145354433942  1.0000
  H   H17       1.0  0.9451825635145978  0.3498090707597155  0.8267384263272488  1.0000
  H   H18       1.0  0.054817436918949435  0.6501909289573228  0.3267384265826587  1.0000
  H   H19       1.0  0.5548174366306843  0.3498090707597155  0.3267384265826587  1.0000
  H   H20       1.0  0.4451825632978242  0.6501909289573228  0.8267384263272488  1.0000
  H   H21       1.0  0.9372345644648352  0.11432205020118132  0.8209588581481643  1.0000
  H   H22       1.0  0.06276543596871215  0.885677949515857  0.3209588584035742  1.0000
  H   H23       1.0  0.5627654356804469  0.11432205020118132  0.3209588584035742  1.0000
  H   H24       1.0  0.43723456424806156  0.885677949515857  0.8209588581481643  1.0000
  H   H25       1.0  0.003293290935709202  0.08504757609117404  0.5334864626095074  1.0000
  H   H26       1.0  0.9967067089927992  0.9149524236258643  0.033486462864917264  1.0000
  H   H27       1.0  0.4967067092810645  0.08504757609117404  0.033486462864917264  1.0000
  H   H28       1.0  0.5032932911524829  0.9149524236258643  0.5334864626095074  1.0000
  H   H29       1.0  0.964229479561148  0.9628568662445689  0.6469147241807903  1.0000
  H   H30       1.0  0.0357705208723993  0.03714313482114671  0.14691472443620027  1.0000
  H   H31       1.0  0.5357705205841341  0.9628568662445689  0.14691472443620027  1.0000
  H   H32       1.0  0.46422947934437436  0.03714313482114671  0.6469147241807903  1.0000
  H   H33       1.0  0.24813842877478476  0.9867661321824011  0.28758122147922865  1.0000
  H   H34       1.0  0.7518615716587626  0.013233867534637215  0.7875812212238188  1.0000
  H   H35       1.0  0.2518615714419889  0.9867661321824011  0.7875812212238188  1.0000
  H   H36       1.0  0.7481384284865196  0.013233867534637215  0.28758122147922865  1.0000
  H   H37       1.0  0.010465163388466843  0.39816413208413204  0.5428634687790881  1.0000
  H   H38       1.0  0.9895348365400415  0.6018358676329063  0.042863469034498065  1.0000
  H   H39       1.0  0.48953483682830684  0.39816413208413204  0.042863469034498065  1.0000
  H   H40       1.0  0.5104651631002016  0.6018358676329063  0.5428634687790881  1.0000
  H   H41       1.0  0.9803479685039754  0.5125771896798127  0.6658285725176478  1.0000
  H   H42       1.0  0.01965203192957189  0.4874228100372256  0.16582857189928366  1.0000
  H   H43       1.0  0.5196520316413066  0.5125771896798127  0.16582857189928366  1.0000
  H   H44       1.0  0.48034796828720183  0.4874228100372256  0.6658285725176478  1.0000
  H   H45       1.0  0.3380708571959317  0.6572083585134033  0.9430580858488031  1.0000
  H   H46       1.0  0.6619291427325767  0.34279164255231226  0.4430580861042132  1.0000
  H   H47       1.0  0.161929142515803  0.6572083585134033  0.4430580861042132  1.0000
  H   H48       1.0  0.8380708574127054  0.34279164255231226  0.9430580858488031  1.0000
  H   H49       1.0  0.2155839405136804  0.7264027860797274  0.9556665313854432  1.0000
  H   H50       1.0  0.7844160594148281  0.27359721363731093  0.4556665316408531  1.0000
  H   H51       1.0  0.2844160597030933  0.7264027860797274  0.4556665316408531  1.0000
  H   H52       1.0  0.7155839402254152  0.27359721363731093  0.9556665313854432  1.0000
  H   H53       1.0  0.4155410530007542  0.7528373774047284  0.10270501245077152  1.0000
  H   H54       1.0  0.5844589469277542  0.24716262231230982  0.6027050130691357  1.0000
  H   H55       1.0  0.0844589467109806  0.7528373774047284  0.6027050130691357  1.0000
  H   H56       1.0  0.9155410532175278  0.24716262231230982  0.10270501245077152  1.0000
  H   H57       1.0  0.1705304225026229  0.8914121503984375  0.12862006823847658  1.0000
  H   H58       1.0  0.8294695774258855  0.1085878493186008  0.6286200679830667  1.0000
  H   H59       1.0  0.32946957771415075  0.8914121503984375  0.6286200679830667  1.0000
  H   H60       1.0  0.6705304222143577  0.1085878493186008  0.12862006823847658  1.0000
  H   H61       1.0  0.4095106982375907  0.06525309892432367  0.2792914462832708  1.0000
  H   H62       1.0  0.5904893016909177  0.9347469007927146  0.7792914460278609  1.0000
  H   H63       1.0  0.09048930197918295  0.06525309892432367  0.7792914460278609  1.0000
  H   H64       1.0  0.9095106979493255  0.9347469007927146  0.2792914462832708  1.0000
  H   H65       1.0  0.4243316862090547  0.8365925700009934  0.31545182036061753  1.0000
  H   H66       1.0  0.5756683137194538  0.16340742971604483  0.8154518201052077  1.0000
  H   H67       1.0  0.07566831350268009  0.8365925700009934  0.8154518201052077  1.0000
  H   H68       1.0  0.9243316864258284  0.16340742971604483  0.31545182036061753  1.0000
  H   H69       1.0  0.35779573745031806  0.957813219151371  0.38391145172013585  1.0000
  H   H70       1.0  0.6422042624781903  0.042186780565667305  0.8839114514647259  1.0000
  H   H71       1.0  0.14220426276645556  0.957813219151371  0.8839114514647259  1.0000
  H   H72       1.0  0.8577957376670918  0.042186780565667305  0.38391145172013585  1.0000
  C   C1        1.0  0.8378701938452514  0.7019907319014536  0.8477158398262066  1.0000
  C   C2        1.0  0.16212980608325692  0.29800926781558473  0.3477158392078424  1.0000
  C   C3        1.0  0.6621298063000306  0.7019907319014536  0.3477158392078424  1.0000
  C   C4        1.0  0.33787019362847787  0.29800926781558473  0.8477158398262066  1.0000
  C   C5        1.0  0.7020411324574847  0.6264428420931168  0.8701111964297032  1.0000
  C   C6        1.0  0.2979588674710238  0.37355715762392144  0.37011119668511305  1.0000
  C   C7        1.0  0.7979588676877974  0.6264428420931168  0.37011119668511305  1.0000
  C   C8        1.0  0.20204113224071096  0.37355715762392144  0.8701111964297032  1.0000
  C   C9        1.0  0.7366097405644598  0.5634338828288592  0.7717914236718134  1.0000
  C   C10       1.0  0.26339025936404864  0.4365661182368564  0.2717914239272232  1.0000
  C   C11       1.0  0.7633902595808223  0.5634338828288592  0.2717914239272232  1.0000
  C   C12       1.0  0.23660974034768617  0.4365661182368564  0.7717914236718134  1.0000
  C   C13       1.0  0.8027672404500698  0.766796814437093  0.9449574644920542  1.0000
  C   C14       1.0  0.19723275998347758  0.23320318527994538  0.44495746474746406  1.0000
  C   C15       1.0  0.6972327596952124  0.766796814437093  0.44495746474746406  1.0000
  C   C16       1.0  0.30276724023329604  0.23320318527994538  0.9449574644920542  1.0000
  C   C17       1.0  0.8052514701925869  0.6015766410693542  0.7610716180949584  1.0000
  C   C18       1.0  0.19474852973592155  0.3984233586476842  0.2610716174765942  1.0000
  C   C19       1.0  0.6947485299526952  0.6015766410693542  0.2610716174765942  1.0000
  C   C20       1.0  0.30525146997581326  0.3984233586476842  0.7610716180949584  1.0000
  C   C21       1.0  0.7340987644672923  0.7286838147608866  0.9563182017071993  1.0000
  C   C22       1.0  0.2659012354612162  0.27131618495615173  0.4563182019626091  1.0000
  C   C23       1.0  0.76590123567799  0.7286838147608866  0.4563182019626091  1.0000
  C   C24       1.0  0.23409876475555744  0.27131618495615173  0.9563182017071993  1.0000
  C   C25       1.0  0.9706632073717684  0.23708666240981532  0.6715200336871894  1.0000
  C   C26       1.0  0.029336792556740043  0.7629133373072229  0.1715200339425993  1.0000
  C   C27       1.0  0.5293367922684749  0.23708666240981532  0.1715200339425993  1.0000
  C   C28       1.0  0.4706632076600336  0.7629133373072229  0.6715200336871894  1.0000
  C   C29       1.0  0.2680516668189968  0.9164399189148844  0.21126312379093723  1.0000
  C   C30       1.0  0.7319483331095117  0.0835600821508311  0.7112631235355273  1.0000
  C   C31       1.0  0.231948332892738  0.9164399189148844  0.7112631235355273  1.0000
  C   C32       1.0  0.7680516670357704  0.0835600821508311  0.21126312379093723  1.0000
  C   C33       1.0  0.3184140768907028  0.7309664483680146  0.01805909893809503  1.0000
  C   C34       1.0  0.6815859230378057  0.2690335513490237  0.5180590986826851  1.0000
  C   C35       1.0  0.1815859233260709  0.7309664483680146  0.5180590986826851  1.0000
  C   C36       1.0  0.8184140766024376  0.2690335513490237  0.01805909893809503  1.0000
  C   C37       1.0  0.3374155131750031  0.8789858654272147  0.20540620563503129  1.0000
  C   C38       1.0  0.6625844867535053  0.12101413428982355  0.7054062053796214  1.0000
  C   C39       1.0  0.16258448653673163  0.8789858654272147  0.7054062053796214  1.0000
  C   C40       1.0  0.8374155133917768  0.12101413428982355  0.20540620563503129  1.0000
  C   C41       1.0  0.24946110088449636  0.7696186681041564  0.02507273320393463  1.0000
  C   C42       1.0  0.750538899044012  0.23038133161288205  0.5250727329485247  1.0000
  C   C43       1.0  0.25053889933227735  0.7696186681041564  0.5250727329485247  1.0000
  C   C44       1.0  0.7494611005962312  0.23038133161288205  0.02507273320393463  1.0000
  C   C45       1.0  0.36182935479617545  0.7851220128990085  0.10751409898017898  1.0000
  C   C46       1.0  0.638170645132333  0.21487798681802972  0.6075140995985432  1.0000
  C   C47       1.0  0.13817064542059818  0.7851220128990085  0.6075140995985432  1.0000
  C   C48       1.0  0.8618293545079102  0.21487798681802972  0.10751409898017898  1.0000
  C   C49       1.0  0.22439071880526165  0.8622850759262379  0.12202346275000207  1.0000
  C   C50       1.0  0.7756092811232468  0.13771492513947767  0.6220234624945922  1.0000
  C   C51       1.0  0.2756092809064731  0.8622850759262379  0.6220234624945922  1.0000
  C   C52       1.0  0.7243907190220353  0.13771492513947767  0.12202346275000207  1.0000
  C   C53       1.0  0.3845861188661521  0.9370389724434816  0.301157429480603  1.0000
  C   C54       1.0  0.6154138810623564  0.06296102727355674  0.8011574292251931  1.0000
  C   C55       1.0  0.11541388084558263  0.9370389724434816  0.8011574292251931  1.0000
  C   C56       1.0  0.8845861190829258  0.06296102727355674  0.301157429480603  1.0000
  N   N1        1.0  0.9416477993438139  0.23478599698738983  0.7775224467104587  1.0000
  N   N2        1.0  0.058352200584694466  0.7652140027296485  0.2775224460920944  1.0000
  N   N3        1.0  0.5583522002964293  0.23478599698738983  0.2775224460920944  1.0000
  N   N4        1.0  0.4416477996320792  0.7652140027296485  0.7775224467104587  1.0000
  N   N5        1.0  0.9763931124782732  0.0843994382023976  0.6098550373527329  1.0000
  N   N6        1.0  0.02360688745023525  0.915600562863318  0.10985503673436878  1.0000
  N   N7        1.0  0.5236068876670089  0.0843994382023976  0.10985503673436878  1.0000
  N   N8        1.0  0.47639311276653845  0.915600562863318  0.6098550373527329  1.0000
  N   N9        1.0  0.9923824225734544  0.392985254468267  0.6266199213438268  1.0000
  N   N10       1.0  0.007617577355054106  0.6070147452487713  0.12661992072546263  1.0000
  N   N11       1.0  0.5076175775718277  0.392985254468267  0.12661992072546263  1.0000
  N   N12       1.0  0.4923824223566807  0.6070147452487713  0.6266199213438268  1.0000
  O   O1        1.0  0.9416881105380489  0.9015270884231393  0.9020929076088242  1.0000
  O   O2        1.0  0.058311889390459455  0.098472911293899  0.40209290786423413  1.0000
  O   O3        1.0  0.5583118896072331  0.9015270884231393  0.40209290786423413  1.0000
  O   O4        1.0  0.44168811032127536  0.098472911293899  0.9020929076088242  1.0000
  O   O5        1.0  0.9570898725280463  0.5747201133584565  0.8958717436202893  1.0000
  O   O6        1.0  0.042910127400462184  0.4252798863585819  0.3958717438756993  1.0000
  O   O7        1.0  0.542910127112197  0.5747201133584565  0.3958717438756993  1.0000
  O   O8        1.0  0.45708987281631147  0.4252798863585819  0.8958717436202893  1.0000
  O   O9        1.0  0.9436709573656855  0.7417766362764048  0.713629319477101  1.0000
  O   O10       1.0  0.056329042562822895  0.2582233634406336  0.21362931973251095  1.0000
  O   O11       1.0  0.5563290427795966  0.7417766362764048  0.21362931973251095  1.0000
  O   O12       1.0  0.4436709576539508  0.2582233634406336  0.713629319477101  1.0000
  S   S1        1.0  0.9263688431156921  0.7338318454298942  0.8386639842155107  1.0000
  S   S2        1.0  0.07363115681281625  0.2661681542871441  0.33866398447092055  1.0000
  S   S3        1.0  0.5736311565245511  0.7338318454298942  0.33866398447092055  1.0000
  S   S4        1.0  0.42636884340395736  0.2661681542871441  0.8386639842155107  1.0000
  Br  Br1       1.0  0.609223364830675  0.5661004551880625  0.8884735098283583  1.0000
  Br  Br2       1.0  0.39077663509783356  0.43389954452897567  0.3884735092099941  1.0000
  Br  Br3       1.0  0.8907766348095681  0.5661004551880625  0.3884735092099941  1.0000
  Br  Br4       1.0  0.10922336511894015  0.43389954452897567  0.8884735098283583  1.0000
