data_image0
_chemical_formula_structural       H80C64N20O12S4Br4
_chemical_formula_sum              "H80 C64 N20 O12 S4 Br4"
_cell_length_a       20.95247103609058
_cell_length_b       12.59433319219839
_cell_length_c       7.311863119012048
_cell_angle_alpha    90.0
_cell_angle_beta     90.0
_cell_angle_gamma    90.0

_space_group_name_H-M_alt    "P 1"
_space_group_IT_number       1

loop_
  _space_group_symop_operation_xyz
  'x, y, z'

loop_
  _atom_site_type_symbol
  _atom_site_label
  _atom_site_symmetry_multiplicity
  _atom_site_fract_x
  _atom_site_fract_y
  _atom_site_fract_z
  _atom_site_occupancy
  H   H1        1.0  0.7521917273076271  0.4923715535683375  0.7080898446440774  1.0000
  H   H2        1.0  0.24780827287895812  0.5076284462571087  0.20808984457651922  1.0000
  H   H3        1.0  0.7478082729722507  0.9923715538780645  0.20808984457651922  1.0000
  H   H4        1.0  0.2521917272143345  0.00762844594738165  0.7080898446440774  1.0000
  H   H5        1.0  0.7399213936769468  0.6116224449875314  0.5900925495693611  1.0000
  H   H6        1.0  0.2600786060323679  0.38837755483791475  0.09009254950180291  1.0000
  H   H7        1.0  0.7600786061256605  0.11162244467780437  0.09009254950180291  1.0000
  H   H8        1.0  0.23992139406092478  0.8883775551476417  0.5900925495693611  1.0000
  H   H9        1.0  0.7632940707782044  0.49765606756239533  0.14860918240860324  1.0000
  H   H10       1.0  0.2367059294083808  0.5023439322630507  0.6486091824761614  1.0000
  H   H11       1.0  0.7367059295016734  0.9976560678721225  0.6486091824761614  1.0000
  H   H12       1.0  0.26329407068491184  0.002343932747331669  0.14860918240860324  1.0000
  H   H13       1.0  0.744883215116572  0.6145168927874818  0.2686575662080256  1.0000
  H   H14       1.0  0.2551167845927427  0.38548310783197237  0.7686575662755838  1.0000
  H   H15       1.0  0.7551167846860353  0.11451689247775469  0.7686575662755838  1.0000
  H   H16       1.0  0.24488321550054995  0.8854831073476914  0.2686575662080256  1.0000
  H   H17       1.0  0.5976966410514913  0.7026880434989681  0.5782903852515394  1.0000
  H   H18       1.0  0.4023033586578232  0.297311956326478  0.07829038518398128  1.0000
  H   H19       1.0  0.9023033587511159  0.20268804318924113  0.07829038518398128  1.0000
  H   H20       1.0  0.09769664095819877  0.797311956636205  0.5782903852515394  1.0000
  H   H21       1.0  0.7693051527065868  0.33385483819060824  0.5458694446319576  1.0000
  H   H22       1.0  0.23069484700272774  0.6661451616348378  0.04586944456439945  1.0000
  H   H23       1.0  0.7306948470960204  0.8338548385003353  0.04586944456439945  1.0000
  H   H24       1.0  0.26930515261329424  0.1661451613251109  0.5458694446319576  1.0000
  H   H25       1.0  0.7738536439005774  0.3359761946445212  0.307134115265472  1.0000
  H   H26       1.0  0.22614635628600785  0.6640238051809249  0.8071341153330301  1.0000
  H   H27       1.0  0.7261463563793005  0.8359761941602404  0.8071341153330301  1.0000
  H   H28       1.0  0.2738536438072848  0.16402380566520583  0.307134115265472  1.0000
  H   H29       1.0  0.4809925069286913  0.7364831713159498  0.5631700009937255  1.0000
  H   H30       1.0  0.519007493257894  0.2635168285094963  0.06317000092616736  1.0000
  H   H31       1.0  0.019007493164601378  0.23648317180023073  0.06317000092616736  1.0000
  H   H32       1.0  0.9809925070219839  0.7635168288192233  0.5631700009937255  1.0000
  H   H33       1.0  0.5161431428002976  0.020489669922330814  0.24710226799816312  1.0000
  H   H34       1.0  0.4838568569090169  0.9795103299031154  0.7471022680657212  1.0000
  H   H35       1.0  0.9838568570023096  0.5204896702320578  0.7471022680657212  1.0000
  H   H36       1.0  0.016143143184275715  0.47951032959338835  0.24710226799816312  1.0000
  H   H37       1.0  0.6326578753965111  0.9880724060650194  0.266875724865  1.0000
  H   H38       1.0  0.36734212479007416  0.011927594554434564  0.7668757249325581  1.0000
  H   H39       1.0  0.8673421248833668  0.4880724057552925  0.7668757249325581  1.0000
  H   H40       1.0  0.13265787530321846  0.5119275940701536  0.266875724865  1.0000
  H   H41       1.0  0.5309703576650684  0.5050621484224587  0.23343311714383141  1.0000
  H   H42       1.0  0.46902964204424624  0.4949378514029875  0.7334331172113896  1.0000
  H   H43       1.0  0.9690296421375387  0.005062148112731598  0.7334331172113896  1.0000
  H   H44       1.0  0.030970358049046427  0.9949378517127145  0.23343311714383141  1.0000
  H   H45       1.0  0.6309369466364669  0.4048747092985181  0.24254905776185084  1.0000
  H   H46       1.0  0.3690630535501183  0.5951252905269281  0.742549057829409  1.0000
  H   H47       1.0  0.8690630531661402  0.9048747096082451  0.742549057829409  1.0000
  H   H48       1.0  0.1309369465431743  0.09512529021720105  0.24254905776185084  1.0000
  H   H49       1.0  0.5368545232982119  0.15207049398902633  0.5354332358630071  1.0000
  H   H50       1.0  0.46314547688837326  0.8479295066304278  0.03543323579544886  1.0000
  H   H51       1.0  0.9631454769816659  0.6520704935047454  0.03543323579544886  1.0000
  H   H52       1.0  0.03685452320491931  0.3479295063207007  0.5354332358630071  1.0000
  H   H53       1.0  0.43679821603073454  0.2500049071236611  0.53092757301569  1.0000
  H   H54       1.0  0.5632017841558508  0.749995093495793  0.03092757294813185  1.0000
  H   H55       1.0  0.06320178406255811  0.7500049066393801  0.03092757294813185  1.0000
  H   H56       1.0  0.9367982156467564  0.249995093186066  0.53092757301569  1.0000
  H   H57       1.0  0.3480340580086831  0.3232892863690614  0.3927774649572551  1.0000
  H   H58       1.0  0.6519659421779022  0.6767107134563848  0.8927774636571727  1.0000
  H   H59       1.0  0.15196594208460956  0.8232892858847805  0.8927774636571727  1.0000
  H   H60       1.0  0.8480340581019757  0.17671071394066565  0.3927774649572551  1.0000
  H   H61       1.0  0.3228965613815419  0.4534273043957153  0.4506456748940366  1.0000
  H   H62       1.0  0.6771034388050433  0.5465726954297309  0.9506456749615948  1.0000
  H   H63       1.0  0.17710343871175072  0.9534273047054423  0.9506456749615948  1.0000
  H   H64       1.0  0.8228965614748345  0.04657269591401171  0.4506456748940366  1.0000
  H   H65       1.0  0.3692256744645742  0.378515217697514  0.6082865307523642  1.0000
  H   H66       1.0  0.6307743257220111  0.6214847829219401  0.10828653068480608  1.0000
  H   H67       1.0  0.1307743256287184  0.8785152172132331  0.10828653068480608  1.0000
  H   H68       1.0  0.8692256745578668  0.12148478261221302  0.6082865307523642  1.0000
  H   H69       1.0  0.45111939034392845  0.6021053932968354  0.3527496423303531  1.0000
  H   H70       1.0  0.5488806093653861  0.3978946065286107  0.8527496423979113  1.0000
  H   H71       1.0  0.048880609749364194  0.10210539378111631  0.8527496423979113  1.0000
  H   H72       1.0  0.9511193904372209  0.8978946060443298  0.3527496423303531  1.0000
  H   H73       1.0  0.3681305835819534  0.5803575972190194  0.3174132122311377  1.0000
  H   H74       1.0  0.6318694166046318  0.4196424026064267  0.817413212298696  1.0000
  H   H75       1.0  0.13186941651133924  0.0803575977033003  0.817413212298696  1.0000
  H   H76       1.0  0.8681305831979753  0.9196424029161537  0.3174132122311377  1.0000
  H   H77       1.0  0.4239685421685457  0.5422649866235506  0.14635173041157648  1.0000
  H   H78       1.0  0.5760314580180396  0.45773501399590333  0.6463517304791346  1.0000
  H   H79       1.0  0.07603145792474694  0.042264986313823666  0.6463517304791346  1.0000
  H   H80       1.0  0.9239685422618382  0.9577350135116225  0.14635173041157648  1.0000
  C   C1        1.0  0.6219969385735826  0.8423016437719235  0.42127823372276185  1.0000
  C   C2        1.0  0.37800306113573195  0.15769835605352264  0.92127823379032  1.0000
  C   C3        1.0  0.8780030612290246  0.34230164425620435  0.92127823379032  1.0000
  C   C4        1.0  0.12199693895756065  0.6576983563632497  0.42127823372276185  1.0000
  C   C5        1.0  0.5797040630233133  0.771693640439849  0.5049662144795296  1.0000
  C   C6        1.0  0.4202959366860012  0.22830635938559712  0.00496621441197143  1.0000
  C   C7        1.0  0.9202959367792939  0.2716936409241299  0.00496621441197143  1.0000
  C   C8        1.0  0.0797040634072914  0.7283063596953241  0.5049662144795296  1.0000
  C   C9        1.0  0.5142143617066315  0.7904274293907523  0.49628004667711845  1.0000
  C   C10       1.0  0.4857856380026831  0.20957257043469388  0.9962800467446766  1.0000
  C   C11       1.0  0.9857856380959757  0.29042742908102526  0.9962800467446766  1.0000
  C   C12       1.0  0.014214361613338848  0.7095725707444209  0.49628004667711845  1.0000
  C   C13       1.0  0.4920756230728446  0.8796741630484158  0.40245784721385885  1.0000
  C   C14       1.0  0.5079243771137407  0.12032583677703043  0.902457847281417  1.0000
  C   C15       1.0  0.007924377020448074  0.3796741635326966  0.902457847281417  1.0000
  C   C16       1.0  0.9920756226888664  0.6203258362927496  0.40245784721385885  1.0000
  C   C17       1.0  0.53413855104358  0.9509146595723437  0.3190288469616736  1.0000
  C   C18       1.0  0.46586144914300515  0.04908534025310246  0.8190288470292318  1.0000
  C   C19       1.0  0.9658614492362978  0.4509146592626167  0.8190288470292318  1.0000
  C   C20       1.0  0.034138550950287436  0.5490853405628295  0.3190288469616736  1.0000
  C   C21       1.0  0.5996187336739144  0.9319941818969071  0.32896235348631625  1.0000
  C   C22       1.0  0.4003812660354002  0.06800581872254696  0.8289623535538744  1.0000
  C   C23       1.0  0.9003812661286928  0.43199418158718  0.8289623535538744  1.0000
  C   C24       1.0  0.0996187335806217  0.5680058182382661  0.32896235348631625  1.0000
  C   C25       1.0  0.7570451390997177  0.4809088458729886  0.42824538138004503  1.0000
  C   C26       1.0  0.24295486060959676  0.5190911539524575  0.9282453814476032  1.0000
  C   C27       1.0  0.7429548607028894  0.9809088461827157  0.9282453814476032  1.0000
  C   C28       1.0  0.25704513900642517  0.019091153642730507  0.42824538138004503  1.0000
  C   C29       1.0  0.4750412103114467  0.38755894540122093  0.38360209078681173  1.0000
  C   C30       1.0  0.5249587893978679  0.6124410552182331  0.8836020908543698  1.0000
  C   C31       1.0  0.02495878930457524  0.8875589449169401  0.8836020908543698  1.0000
  C   C32       1.0  0.9750412104047393  0.1124410549085061  0.38360209078681173  1.0000
  C   C33       1.0  0.5316656670619841  0.4283209390824751  0.3016220919488422  1.0000
  C   C34       1.0  0.46833433312460104  0.5716790607429711  0.8016220920164003  1.0000
  C   C35       1.0  0.9683343332178938  0.9283209393922021  0.8016220920164003  1.0000
  C   C36       1.0  0.03166566696869155  0.07167906043324407  0.3016220919488422  1.0000
  C   C37       1.0  0.5882987939116087  0.3714813597990367  0.3056774030942191  1.0000
  C   C38       1.0  0.4117012057977059  0.6285186400264094  0.8056774031617773  1.0000
  C   C39       1.0  0.9117012058909986  0.8714813601087636  0.8056774031617773  1.0000
  C   C40       1.0  0.08829879381831601  0.12851863971668245  0.3056774030942191  1.0000
  C   C41       1.0  0.5912163605267684  0.27107305467468545  0.39085131702877696  1.0000
  C   C42       1.0  0.4087836391825462  0.7289269459447686  0.8908513170963351  1.0000
  C   C43       1.0  0.9087836392758388  0.7710730541904045  0.8908513170963351  1.0000
  C   C44       1.0  0.09121636091074646  0.22892694563504157  0.39085131702877696  1.0000
  C   C45       1.0  0.5351920444459562  0.2297583346288222  0.4706736578604063  1.0000
  C   C46       1.0  0.46480795574062894  0.770241665196624  0.9706736579279646  1.0000
  C   C47       1.0  0.9648079558339216  0.7297583349385491  0.9706736579279646  1.0000
  C   C48       1.0  0.03519204435266365  0.27024166488689694  0.4706736578604063  1.0000
  C   C49       1.0  0.47860563666819284  0.28585563404262915  0.46800197217892714  1.0000
  C   C50       1.0  0.5213943635183924  0.7141443665768249  0.9680019722464853  1.0000
  C   C51       1.0  0.021394363425099837  0.7858556335583482  0.9680019722464853  1.0000
  C   C52       1.0  0.9786056367614854  0.21414436626709787  0.46800197217892714  1.0000
  C   C53       1.0  0.36218566568728383  0.39703400360231095  0.4625493331796639  1.0000
  C   C54       1.0  0.6378143344993014  0.6029659962231352  0.962549333247222  1.0000
  C   C55       1.0  0.13781433440600876  0.897034003912038  0.962549333247222  1.0000
  C   C56       1.0  0.8621856657805764  0.10296599591340815  0.4625493331796639  1.0000
  C   C57       1.0  0.41569316167994663  0.5470863192874836  0.29474726549465224  1.0000
  C   C58       1.0  0.5843068385066387  0.4529136805379626  0.7947472655622104  1.0000
  C   C59       1.0  0.08430683841334598  0.047086319771764425  0.7947472655622104  1.0000
  C   C60       1.0  0.9156931612959686  0.9529136800536818  0.29474726549465224  1.0000
  C   C61       1.0  0.6484011664590218  0.2111081523273486  0.3991743448275007  1.0000
  C   C62       1.0  0.3515988332502928  0.7888918474980976  0.8991743448950589  1.0000
  C   C63       1.0  0.8515988333435854  0.7111081526370757  0.8991743448950589  1.0000
  C   C64       1.0  0.14840116636572917  0.2888918471883705  0.3991743448275007  1.0000
  N   N1        1.0  0.7455629869666542  0.5308963291634881  0.5863561229493164  1.0000
  N   N2        1.0  0.25443701274266034  0.46910367066195807  0.08635612288175817  1.0000
  N   N3        1.0  0.7544370128359529  0.030896328853761083  0.08635612288175817  1.0000
  N   N4        1.0  0.24556298735063228  0.969103670971685  0.5863561229493164  1.0000
  N   N5        1.0  0.7555260228129002  0.5351265975855592  0.2707308011350559  1.0000
  N   N6        1.0  0.2444739768964144  0.4648734022398868  0.7707308012026141  1.0000
  N   N7        1.0  0.7444739769897071  0.03512659806984018  0.7707308012026141  1.0000
  N   N8        1.0  0.2555260231968782  0.9648734025496138  0.2707308011350559  1.0000
  N   N9        1.0  0.7706188192403618  0.3771859651087092  0.4274698334919486  1.0000
  N   N10       1.0  0.2293811809462235  0.6228140347167369  0.9274698335595067  1.0000
  N   N11       1.0  0.7293811810395161  0.8771859654184363  0.9274698335595067  1.0000
  N   N12       1.0  0.2706188191470691  0.1228140352010178  0.4274698334919486  1.0000
  N   N13       1.0  0.4192636551015168  0.4431695171807457  0.3814653043418665  1.0000
  N   N14       1.0  0.5807363450850684  0.5568304826447005  0.8814653044094246  1.0000
  N   N15       1.0  0.08073634499177584  0.9431695174904726  0.8814653044094246  1.0000
  N   N16       1.0  0.9192636551948095  0.056830482334973426  0.3814653043418665  1.0000
  N   N17       1.0  0.694871102550229  0.1598770946640747  0.4093481772405521  1.0000
  N   N18       1.0  0.3051288976363562  0.8401229051613714  0.9093481773081102  1.0000
  N   N19       1.0  0.8051288977296488  0.6598770949738018  0.9093481773081102  1.0000
  N   N20       1.0  0.19487110245693642  0.3401229056456523  0.4093481772405521  1.0000
  O   O1        1.0  0.7193371910186014  0.7539818111118636  0.26021988363713855  1.0000
  O   O2        1.0  0.2806628091679839  0.24601818871358255  0.7602198837046967  1.0000
  O   O3        1.0  0.7806628087840058  0.2539818108021366  0.7602198837046967  1.0000
  O   O4        1.0  0.2193371909253087  0.7460181890233096  0.26021988363713855  1.0000
  O   O5        1.0  0.7161927437652671  0.7536860447586033  0.5953694098404014  1.0000
  O   O6        1.0  0.2838072559440475  0.24631395586085061  0.09536940977284328  1.0000
  O   O7        1.0  0.7838072560373401  0.2536860444488764  0.09536940977284328  1.0000
  O   O8        1.0  0.21619274414924516  0.7463139553765697  0.5953694098404014  1.0000
  O   O9        1.0  0.7377507571003987  0.9185833758286172  0.4285628668091642  1.0000
  O   O10       1.0  0.26224924260891586  0.08141662399682906  0.9285628668767224  1.0000
  O   O11       1.0  0.7622492427022085  0.4185833755188901  0.9285628668767224  1.0000
  O   O12       1.0  0.2377507574843768  0.581416624306556  0.4285628668091642  1.0000
  S   S1        1.0  0.7051151482110147  0.8150554605271795  0.4272527916827449  1.0000
  S   S2        1.0  0.29488485197557057  0.18494453929826674  0.9272527917503032  1.0000
  S   S3        1.0  0.7948848515915925  0.3150554610114603  0.9272527917503032  1.0000
  S   S4        1.0  0.20511514811772202  0.6849445388139858  0.4272527916827449  1.0000
  Br  Br1       1.0  0.40265160254692967  0.9033699336339411  0.38289808553996635  1.0000
  Br  Br2       1.0  0.5973483976396555  0.09663006698551298  0.8828980856075245  1.0000
  Br  Br3       1.0  0.0973483975463629  0.40336993332421406  0.8828980856075245  1.0000
  Br  Br4       1.0  0.9026516021629516  0.5966300665012322  0.38289808553996635  1.0000
