data_image0
_chemical_formula_structural       H80C60N20O20S4Cl4
_chemical_formula_sum              "H80 C60 N20 O20 S4 Cl4"
_cell_length_a       7.326276352522079
_cell_length_b       12.305481061244738
_cell_length_c       20.8498924121735
_cell_angle_alpha    90.0
_cell_angle_beta     90.0
_cell_angle_gamma    90.0

_space_group_name_H-M_alt    "P 1"
_space_group_IT_number       1

loop_
  _space_group_symop_operation_xyz
  'x, y, z'

loop_
  _atom_site_type_symbol
  _atom_site_label
  _atom_site_symmetry_multiplicity
  _atom_site_fract_x
  _atom_site_fract_y
  _atom_site_fract_z
  _atom_site_occupancy
  H   H1        1.0  0.6276267381610681  0.7491022158436093  0.7829672416184051  1.0000
  H   H2        1.0  0.8723732620050301  0.25089778405523777  0.28296724191033706  1.0000
  H   H3        1.0  0.12762673765071875  0.7508977840046612  0.21703275827734977  1.0000
  H   H4        1.0  0.37237326149468075  0.2491022158941857  0.7170327584650366  1.0000
  H   H5        1.0  0.8663723540560875  0.7466436805088728  0.7768422459841141  1.0000
  H   H6        1.0  0.6336276461100108  0.25335632020262017  0.27684224627604603  1.0000
  H   H7        1.0  0.36637235491068804  0.7533563201520437  0.22315775391164078  1.0000
  H   H8        1.0  0.13362764559966134  0.2466436805594493  0.7231577540993276  1.0000
  H   H9        1.0  0.9104303849668218  0.030260950234019788  0.746849693617998  1.0000
  H   H10       1.0  0.5895696151992763  0.9697390496648272  0.2468496934303112  1.0000
  H   H11       1.0  0.4104303844564725  0.46973904971540364  0.25315030627775686  1.0000
  H   H12       1.0  0.08956961468892698  0.5302609501834432  0.7531503064654437  1.0000
  H   H13       1.0  0.02726996367414164  0.9085443774490763  0.760031477704305  1.0000
  H   H14       1.0  0.47273003547125786  0.09145562244977051  0.2600314775166181  1.0000
  H   H15       1.0  0.527269964184491  0.5914556223991939  0.23996852219144993  1.0000
  H   H16       1.0  0.9727300359816072  0.40854437749965294  0.7399685223791368  1.0000
  H   H17       1.0  0.058513233650055396  0.828984401278509  0.9051609344986847  1.0000
  H   H18       1.0  0.441486766860294  0.17101559862033794  0.40516093479061666  1.0000
  H   H19       1.0  0.5585132327954548  0.6710155985697615  0.09483906539707018  1.0000
  H   H20       1.0  0.9414867660056935  0.3289844013290855  0.594839065584757  1.0000
  H   H21       1.0  0.4702874453833424  0.9140036495950127  0.7732407362729101  1.0000
  H   H22       1.0  0.029712555127006993  0.08599635111648021  0.2732407365648421  1.0000
  H   H23       1.0  0.9702874445287419  0.5859963510659036  0.2267592636228447  1.0000
  H   H24       1.0  0.5297125542724065  0.4140036496455892  0.7267592633309127  1.0000
  H   H25       1.0  0.5883938514708121  0.033069367054784395  0.7517982395366215  1.0000
  H   H26       1.0  0.911606148695286  0.9669306336567085  0.2517982398285535  1.0000
  H   H27       1.0  0.08839385096046284  0.4669306337072851  0.24820176035913336  1.0000
  H   H28       1.0  0.4116061495498865  0.5330693670042079  0.7482017605468202  1.0000
  H   H29       1.0  0.01143699963913523  0.7687893259040991  0.017956388100180694  1.0000
  H   H30       1.0  0.4885630008712141  0.2312106739947478  0.5179563878082487  1.0000
  H   H31       1.0  0.5114370001494846  0.7312106739441713  0.9820436117955742  1.0000
  H   H32       1.0  0.9885630000166137  0.26878932595467564  0.4820436120875061  1.0000
  H   H33       1.0  0.31885601328645213  0.47707691237600136  0.9792402524858699  1.0000
  H   H34       1.0  0.1811439858589474  0.5229230883354915  0.47924025229818307  1.0000
  H   H35       1.0  0.8188560137968014  0.022923088386068085  0.020759747889503796  1.0000
  H   H36       1.0  0.6811439863692967  0.9770769123254249  0.5207597475975719  1.0000
  H   H37       1.0  0.3643219422211873  0.5363634641466319  0.8666833225215796  1.0000
  H   H38       1.0  0.13567805828916202  0.46363653575221503  0.3666833223338928  1.0000
  H   H39       1.0  0.8643219427315367  0.9636365357016384  0.1333166773741753  1.0000
  H   H40       1.0  0.6356780574345615  0.036363464197208484  0.6333166775618622  1.0000
  H   H41       1.0  0.6318000833269892  0.1599044011531688  0.9895554366483756  1.0000
  H   H42       1.0  0.868199916839109  0.8400955987456781  0.4895554364606887  1.0000
  H   H43       1.0  0.1318000841815897  0.3400955987962547  0.010444563247379307  1.0000
  H   H44       1.0  0.36819991632875965  0.6599044011025923  0.5104445634350662  1.0000
  H   H45       1.0  0.6458174074161422  0.16947351912701655  0.8728279676577434  1.0000
  H   H46       1.0  0.8541825913850062  0.8305264807718303  0.37282796747005653  1.0000
  H   H47       1.0  0.14581740827074274  0.3305264808224069  0.1271720327176303  1.0000
  H   H48       1.0  0.35418259223960663  0.6694735190764399  0.6271720324256984  1.0000
  H   H49       1.0  0.696013469140377  0.34768107306868895  0.8171410112434218  1.0000
  H   H50       1.0  0.8039865310257212  0.6523189268301579  0.31714101105573494  1.0000
  H   H51       1.0  0.19601346863002767  0.15231892688073448  0.1828589886523331  1.0000
  H   H52       1.0  0.3039865318803217  0.8476810730181125  0.6828589888400199  1.0000
  H   H53       1.0  0.7181080642950187  0.5092606220602403  0.9997703579433962  1.0000
  H   H54       1.0  0.7818919358710795  0.49073937783860666  0.4997703577557094  1.0000
  H   H55       1.0  0.2181080651496192  0.9907393777880301  0.0002296424319774642  1.0000
  H   H56       1.0  0.2818919353607302  0.009260622110816767  0.5002296421400455  1.0000
  H   H57       1.0  0.8047283389699614  0.468920017127418  0.10230632742999547  1.0000
  H   H58       1.0  0.6952716611961368  0.5310799835840749  0.6023063271380635  1.0000
  H   H59       1.0  0.30472833982456193  0.031079983634651465  0.8976936729453783  1.0000
  H   H60       1.0  0.19527166068578747  0.9689200170768415  0.3976936727576914  1.0000
  H   H61       1.0  0.6604466631038702  0.4057680561327787  0.16003877641362638  1.0000
  H   H62       1.0  0.8395533370622281  0.5942319437660681  0.6600387761216945  1.0000
  H   H63       1.0  0.16044666259352075  0.09423194381664475  0.8399612234821285  1.0000
  H   H64       1.0  0.3395533379168286  0.9057680560822021  0.33996122377406046  1.0000
  H   H65       1.0  0.5629369084037116  0.4837243144233396  0.09708299927812387  1.0000
  H   H66       1.0  0.9370630917623866  0.5162756854755074  0.5970829989861919  1.0000
  H   H67       1.0  0.06293690925831212  0.01627568552608386  0.902917000617631  1.0000
  H   H68       1.0  0.43706309125203724  0.9837243143727631  0.40291700090956295  1.0000
  H   H69       1.0  0.5386410872477537  0.17401074117645282  0.08501240365945974  1.0000
  H   H70       1.0  0.9613589129183445  0.8259892587223941  0.5850124038471466  1.0000
  H   H71       1.0  0.038641086737404344  0.32598925877297064  0.9149875962362951  1.0000
  H   H72       1.0  0.46135891240799515  0.6740107411258763  0.41498759652822714  1.0000
  H   H73       1.0  0.6295274144842055  0.2365697493264463  0.15446003971318725  1.0000
  H   H74       1.0  0.8704725856818927  0.7634302505724007  0.6544600394212553  1.0000
  H   H75       1.0  0.12952741397385611  0.26343025062297715  0.8455399606621864  1.0000
  H   H76       1.0  0.3704725851715434  0.7365697492758698  0.3455399604744996  1.0000
  H   H77       1.0  0.7805102107609538  0.17754236905704573  0.0972422015384704  1.0000
  H   H78       1.0  0.7194897894051444  0.8224576316544472  0.5972422012465384  1.0000
  H   H79       1.0  0.28051021025060446  0.32245763170502373  0.9027577983572844  1.0000
  H   H80       1.0  0.219489788894795  0.6775423690064691  0.40275779864921646  1.0000
  C   C1        1.0  0.21421545331957503  0.6862808481821158  0.8793138366170021  1.0000
  C   C2        1.0  0.2857845458258244  0.3137191517167312  0.37931383690893405  1.0000
  C   C3        1.0  0.7142154538299244  0.8137191516661546  0.1206861632787528  1.0000
  C   C4        1.0  0.7857845463361738  0.18628084823269228  0.6206861629868209  1.0000
  C   C5        1.0  0.1150358448749849  0.7519626460717989  0.9214572018022809  1.0000
  C   C6        1.0  0.3849641542704146  0.24803735382704806  0.421457201614594  1.0000
  C   C7        1.0  0.6150358453853343  0.7480373537764715  0.07854279809347406  1.0000
  C   C8        1.0  0.884964154780764  0.2519626461223754  0.578542798281161  1.0000
  C   C9        1.0  0.08741185415146678  0.7183410884958815  0.9844823399671553  1.0000
  C   C10       1.0  0.4125881463588826  0.2816589114029654  0.48448233977946836  1.0000
  C   C11       1.0  0.5874118532968663  0.7816589113523889  0.015517659928599718  1.0000
  C   C12       1.0  0.9125881455042821  0.2183410885464581  0.5155176601162866  1.0000
  C   C13       1.0  0.1602185671846676  0.619033441446739  0.0043937473723611505  1.0000
  C   C14       1.0  0.3397814333256818  0.38096655845210786  0.5043937470804292  1.0000
  C   C15       1.0  0.660218566330067  0.8809665584015314  0.9956062525233939  1.0000
  C   C16       1.0  0.8397814324710813  0.11903344149731557  0.4956062528153257  1.0000
  C   C17       1.0  0.25983478624099077  0.5531719252681899  0.96257141683293  1.0000
  C   C18       1.0  0.2401652129044087  0.446828074630657  0.4625714171248619  1.0000
  C   C19       1.0  0.7598347867513401  0.9468280745800806  0.037428583062824976  1.0000
  C   C20       1.0  0.7401652134147582  0.05317192531876644  0.5374285832505118  1.0000
  C   C21       1.0  0.286289402566415  0.5869831024118743  0.89957582174616  1.0000
  C   C22       1.0  0.21371059794393438  0.41301689748697257  0.3995758215584731  1.0000
  C   C23       1.0  0.7862894017118145  0.913016897436396  0.10042417862921375  1.0000
  C   C24       1.0  0.7137105984542836  0.08698310246245089  0.6004241783372819  1.0000
  C   C25       1.0  0.74848523535592  0.8965712299332086  0.7645700344569887  1.0000
  C   C26       1.0  0.7515147648101781  0.10342876996563825  0.26457003474892066  1.0000
  C   C27       1.0  0.24848523484557072  0.6034287707277077  0.23542996543876615  1.0000
  C   C28       1.0  0.2515147642998288  0.3965712299837852  0.735429965626453  1.0000
  C   C29       1.0  0.6716640614172313  0.33335501957085295  0.00593123252414464  1.0000
  C   C30       1.0  0.8283359387488668  0.6666449803279939  0.5059312327118315  1.0000
  C   C31       1.0  0.17166406227183195  0.16664498037857048  0.9940687673716102  1.0000
  C   C32       1.0  0.3283359382385174  0.8333550195202765  0.49406876766354224  1.0000
  C   C33       1.0  0.6539844157462883  0.23857438936264047  0.9672229521062428  1.0000
  C   C34       1.0  0.84601558441981  0.7614256105362064  0.46722295239817463  1.0000
  C   C35       1.0  0.15398441660088882  0.26142561058678304  0.032777047789512265  1.0000
  C   C36       1.0  0.3460155839094606  0.7385743893120639  0.5327770479771992  1.0000
  C   C37       1.0  0.6610456072043734  0.24396377395231464  0.9006922673152704  1.0000
  C   C38       1.0  0.8389543929617247  0.7560362267591784  0.4006922671275835  1.0000
  C   C39       1.0  0.16104560669402407  0.25603622599710885  0.09930773258048456  1.0000
  C   C40       1.0  0.3389543924513754  0.7439637739017382  0.5993077327681714  1.0000
  C   C41       1.0  0.68809058209558  0.3424999249540657  0.8689796192627582  1.0000
  C   C42       1.0  0.8119094180705182  0.6575000749447811  0.36897961907507143  1.0000
  C   C43       1.0  0.18809058295018052  0.1575000749953577  0.13102038063299665  1.0000
  C   C44       1.0  0.3119094175601689  0.8424999249034892  0.6310203808206835  1.0000
  C   C45       1.0  0.7076800915672768  0.43496504389878626  0.9070884710636473  1.0000
  C   C46       1.0  0.7923199085988213  0.5650349560000607  0.40708847087596045  1.0000
  C   C47       1.0  0.2076800910569275  0.06503495605063721  0.09291152883210761  1.0000
  C   C48       1.0  0.292319908088472  0.9349650438482097  0.5929115290197945  1.0000
  C   C49       1.0  0.7001611668981254  0.43345476405621014  0.9738823298744911  1.0000
  C   C50       1.0  0.7998388332679729  0.5665452358426367  0.47388232968680416  1.0000
  C   C51       1.0  0.2001611677527258  0.06654523589321332  0.026117670021263834  1.0000
  C   C52       1.0  0.2998388327576236  0.9334547640056335  0.5261176702089506  1.0000
  C   C53       1.0  0.6736969181214251  0.42666362849766687  0.10929653280462391  1.0000
  C   C54       1.0  0.8263030820446731  0.5733363714011801  0.6092965329923108  1.0000
  C   C55       1.0  0.17369691761107572  0.07333637145175659  0.8907034670911309  1.0000
  C   C56       1.0  0.32630308153432375  0.9266636284470904  0.3907034669034442  1.0000
  C   C57       1.0  0.6522643632402616  0.22347075878737221  0.10324659223388259  1.0000
  C   C58       1.0  0.8477356369258368  0.7765292411114747  0.6032465924215694  1.0000
  C   C59       1.0  0.1522643627299122  0.27652924116205124  0.8967534076618723  1.0000
  C   C60       1.0  0.34773563778043715  0.7234707587367957  0.3967534074741854  1.0000
  N   N1        1.0  0.7476695890831798  0.7905239690821161  0.7772990612909615  1.0000
  N   N2        1.0  0.7523304110829185  0.2094760308167308  0.27729906158289336  1.0000
  N   N3        1.0  0.2476695885728304  0.7094760307661542  0.2227009386047935  1.0000
  N   N4        1.0  0.25233041057256905  0.2905239691326927  0.7227009383128615  1.0000
  N   N5        1.0  0.9062800023526671  0.9475156462367992  0.7520039537875736  1.0000
  N   N6        1.0  0.593719997813431  0.052484353662047796  0.2520039540795055  1.0000
  N   N7        1.0  0.40628000184231783  0.5524843536114713  0.2479960461081814  1.0000
  N   N8        1.0  0.09371999866803152  0.44751564628737567  0.7479960462958682  1.0000
  N   N9        1.0  0.5911274215733249  0.9524132158401369  0.7639204579636303  1.0000
  N   N10       1.0  0.9088725785927734  0.047586784058710085  0.2639204577759435  1.0000
  N   N11       1.0  0.0911274224279254  0.5475867840081335  0.23607954241174336  1.0000
  N   N12       1.0  0.40887257808242394  0.45241321589071337  0.7360795421198115  1.0000
  N   N13       1.0  0.660812688062658  0.32814143306572613  0.07129664943172898  1.0000
  N   N14       1.0  0.8391873121034403  0.6718585668331208  0.5712966496194158  1.0000
  N   N15       1.0  0.16081268755230857  0.17185856688369736  0.928703350464026  1.0000
  N   N16       1.0  0.3391873129580408  0.8281414330151495  0.4287033502763391  1.0000
  N   N17       1.0  0.7386923123828055  0.5398792202381393  0.8751430102990099  1.0000
  N   N18       1.0  0.7613076877832928  0.46012077966070764  0.375143010111323  1.0000
  N   N19       1.0  0.23869231323740595  0.9601207796101311  0.12485699007636383  1.0000
  N   N20       1.0  0.2613076872729434  0.039879220288715864  0.6248569897844319  1.0000
  O   O1        1.0  0.2458553354160512  0.8446492419328979  0.796767437049246  1.0000
  O   O2        1.0  0.2541446650942981  0.15535075796594897  0.29676743734117794  1.0000
  O   O3        1.0  0.7458553359264006  0.6553507579153725  0.20323256284650892  1.0000
  O   O4        1.0  0.7541446642396976  0.3446492419834745  0.7032325630341958  1.0000
  O   O5        1.0  0.0847296211787459  0.6805549680113755  0.7625429098481672  1.0000
  O   O6        1.0  0.4152703793316035  0.31944503188747136  0.26254291014009906  1.0000
  O   O7        1.0  0.5847296203241454  0.8194450318368948  0.2374570900475878  1.0000
  O   O8        1.0  0.915270378477003  0.1805549680619521  0.7374570902352746  1.0000
  O   O9        1.0  0.41418436242244594  0.6754126391836719  0.7762358020874244  1.0000
  O   O10       1.0  0.08581563808790345  0.324587360715175  0.27623580189973757  1.0000
  O   O11       1.0  0.9141843615678454  0.8245873606645984  0.2237641978083305  1.0000
  O   O12       1.0  0.5858156385982528  0.17541263923424846  0.7237641979960173  1.0000
  O   O13       1.0  0.7435274193724299  0.6232927247481509  0.9086608278582011  1.0000
  O   O14       1.0  0.7564725807936683  0.376707275963342  0.4086608276705144  1.0000
  O   O15       1.0  0.24352741886208054  0.8767072759127655  0.09133917251717245  1.0000
  O   O16       1.0  0.2564725816482688  0.12329272398608145  0.5913391722252405  1.0000
  O   O17       1.0  0.7570866922171953  0.5402454099041567  0.8158025793969482  1.0000
  O   O18       1.0  0.7429133079489029  0.45975458999469027  0.3158025792092614  1.0000
  O   O19       1.0  0.2570866930717959  0.9597545899441137  0.18419742049880666  1.0000
  O   O20       1.0  0.2429133074385535  0.04024540995473322  0.6841974206864935  1.0000
  S   S1        1.0  0.24229148950802568  0.7251125125129749  0.7979712427813727  1.0000
  S   S2        1.0  0.25770851100232367  0.27488748738587204  0.2979712430733047  1.0000
  S   S3        1.0  0.742291490018375  0.7748874873352956  0.2020287571143822  1.0000
  S   S4        1.0  0.7577085101477232  0.22511251256355144  0.702028757302069  1.0000
  Cl  Cl1       1.0  0.12784483343677927  0.5763680724630341  0.08263550122656925  1.0000
  Cl  Cl2       1.0  0.3721551657086202  0.42363192743581285  0.5826355009346373  1.0000
  Cl  Cl3       1.0  0.6278448339471286  0.9236319273852364  0.9173644991488045  1.0000
  Cl  Cl4       1.0  0.8721551662189696  0.0763680725136106  0.4173644989611176  1.0000
