data_image0
_chemical_formula_structural       H84C60N16O12F4S4
_chemical_formula_sum              "H84 C60 N16 O12 F4 S4"
_cell_length_a       7.394536939317112
_cell_length_b       11.879296710971428
_cell_length_c       20.135538899045812
_cell_angle_alpha    90.0
_cell_angle_beta     90.0
_cell_angle_gamma    90.0

_space_group_name_H-M_alt    "P 1"
_space_group_IT_number       1

loop_
  _space_group_symop_operation_xyz
  'x, y, z'

loop_
  _atom_site_type_symbol
  _atom_site_label
  _atom_site_symmetry_multiplicity
  _atom_site_fract_x
  _atom_site_fract_y
  _atom_site_fract_z
  _atom_site_occupancy
  H   H1        1.0  0.10466834452942454  0.48422553707976285  0.0977931065005324  1.0000
  H   H2        1.0  0.39533165551675065  0.5157744628384623  0.5977931065242265  1.0000
  H   H3        1.0  0.6046683445755997  0.015774462458449382  0.9022068935468559  1.0000
  H   H4        1.0  0.8953316555629257  0.9842255374597758  0.40220689352316175  1.0000
  H   H5        1.0  0.12100752587255782  0.4697170738101468  0.9742126554621083  1.0000
  H   H6        1.0  0.37899247417361737  0.5302829261080784  0.47421265543841434  1.0000
  H   H7        1.0  0.621007525918733  0.03028292572806546  0.025787344088645473  1.0000
  H   H8        1.0  0.8789924742197925  0.9697170741901598  0.5257873441123396  1.0000
  H   H9        1.0  0.44871754340122666  0.7698695118502623  0.9673112002442109  1.0000
  H   H10       1.0  0.0512824566449485  0.23013048806796285  0.46731120022051675  1.0000
  H   H11       1.0  0.9487175434474018  0.730130487606175  0.03268879980317742  1.0000
  H   H12       1.0  0.5512824566911237  0.2698695123120501  0.5326887998268716  1.0000
  H   H13       1.0  0.4311784870594543  0.7860763374464433  0.0908157263219141  1.0000
  H   H14       1.0  0.06882151298672089  0.21392366247178188  0.5908157263456082  1.0000
  H   H15       1.0  0.9311784871056294  0.7139236628517949  0.9091842737254742  1.0000
  H   H16       1.0  0.568821513032896  0.28607633706643043  0.40918427370178007  1.0000
  H   H17       1.0  0.6008008664313035  0.9403166064269938  0.2588164238428682  1.0000
  H   H18       1.0  0.8991991337072219  0.059683393491231515  0.7588164238665623  1.0000
  H   H19       1.0  0.10080086638512833  0.5596833930294437  0.7411835762045201  1.0000
  H   H20       1.0  0.3991991336610468  0.44031660688878144  0.24118357618082595  1.0000
  H   H21       1.0  0.4850013989288694  0.8199935641815816  0.2319698247669618  1.0000
  H   H22       1.0  0.014998601117305712  0.1800064357366436  0.731969824790656  1.0000
  H   H23       1.0  0.9850013989750446  0.6800064352748559  0.7680301752804264  1.0000
  H   H24       1.0  0.5149986011634808  0.31999356464336937  0.26803017525673234  1.0000
  H   H25       1.0  0.6433697997645474  0.6560849080233692  0.2091834358701768  1.0000
  H   H26       1.0  0.8566302003739781  0.3439150918948561  0.7091834358938709  1.0000
  H   H27       1.0  0.1433697997183723  0.843915092274869  0.7908165641772115  1.0000
  H   H28       1.0  0.35663020032780285  0.15608490764335617  0.2908165641535173  1.0000
  H   H29       1.0  0.8819408589772041  0.6567430681981865  0.2093570358923826  1.0000
  H   H30       1.0  0.6180591411613213  0.34325693172003874  0.7093570354194424  1.0000
  H   H31       1.0  0.381940858931029  0.8432569321000517  0.7906429641550057  1.0000
  H   H32       1.0  0.11805914111514616  0.15674306781817351  0.2906429641313115  1.0000
  H   H33       1.0  0.9148696308527404  0.9414750664212869  0.2596678080589028  1.0000
  H   H34       1.0  0.5851303692857849  0.05852493349693824  0.759667808082597  1.0000
  H   H35       1.0  0.41486963080656536  0.5585249338769511  0.7403321919884854  1.0000
  H   H36       1.0  0.08513036923960982  0.4414750668830747  0.2403321919647913  1.0000
  H   H37       1.0  0.03645493858671489  0.8233188081721217  0.23170583779215817  1.0000
  H   H38       1.0  0.46354506145946023  0.17668119174610353  0.7317058378158523  1.0000
  H   H39       1.0  0.5364549386328901  0.6766811921261164  0.7682941622552301  1.0000
  H   H40       1.0  0.9635450615056355  0.3233188077921087  0.26829416223153596  1.0000
  H   H41       1.0  0.8567509503286171  0.474331963170505  0.5235252357958764  1.0000
  H   H42       1.0  0.6432490498099084  0.5256680367477202  0.02352523577218226  1.0000
  H   H43       1.0  0.356750950282442  0.02566803720950795  0.47647476425151186  1.0000
  H   H44       1.0  0.14324904976373315  0.9743319627087172  0.976474764275206  1.0000
  H   H45       1.0  0.8478387411475936  0.42241723665050646  0.40593729430243064  1.0000
  H   H46       1.0  0.6521612589909319  0.5775827632677188  0.9059372943261248  1.0000
  H   H47       1.0  0.34783874110141844  0.07758276288770584  0.5940627057449577  1.0000
  H   H48       1.0  0.1521612589447567  0.9224172370305195  0.09406270572126349  1.0000
  H   H49       1.0  0.68443727599627  0.5414874505204597  0.3233364988462526  1.0000
  H   H50       1.0  0.8155627241422555  0.45851254939776553  0.8233364988699466  1.0000
  H   H51       1.0  0.18443727595009485  0.9585125489359779  0.6766635007045013  1.0000
  H   H52       1.0  0.3155627240960803  0.04148745098224741  0.17666350068080722  1.0000
  H   H53       1.0  0.5350471926055964  0.7184074619601045  0.3616892791652634  1.0000
  H   H54       1.0  0.9649528075329291  0.2815925379581207  0.8616892791889574  1.0000
  H   H55       1.0  0.035047192559421216  0.781592537496333  0.6383107208821249  1.0000
  H   H56       1.0  0.46495280748675394  0.21840746242189224  0.1383107208584308  1.0000
  H   H57       1.0  0.5403337210685416  0.7725091571729557  0.4792309695995907  1.0000
  H   H58       1.0  0.9596662777176341  0.22749084274526965  0.9792309696232849  1.0000
  H   H59       1.0  0.040333721022366466  0.7274908431252827  0.5207690304477975  1.0000
  H   H60       1.0  0.459666277671459  0.2725091567929426  0.020769030424103403  1.0000
  H   H61       1.0  0.6729038979497637  0.8336886560677658  0.5736076316560531  1.0000
  H   H62       1.0  0.827096100836412  0.16631134385045937  0.07360763163235902  1.0000
  H   H63       1.0  0.17290389925593827  0.6663113433886716  0.42639236839133515  1.0000
  H   H64       1.0  0.32709610079023693  0.3336886565295536  0.9263923684150293  1.0000
  H   H65       1.0  0.6386080587266764  0.7717026835042616  0.6529789595362191  1.0000
  H   H66       1.0  0.861391941411849  0.2282973172557642  0.15297895951252494  1.0000
  H   H67       1.0  0.1386080586805012  0.7282973167939765  0.3470210405111692  1.0000
  H   H68       1.0  0.361391941365674  0.2717026831242488  0.8470210405348633  1.0000
  H   H69       1.0  0.4673362386798947  0.7618755672329606  0.5913294573190807  1.0000
  H   H70       1.0  0.03266376136628045  0.23812443268526454  0.09132945729538659  1.0000
  H   H71       1.0  0.9673362387260699  0.7381244322234768  0.4086705427283075  1.0000
  H   H72       1.0  0.5326637614124556  0.2618755676947484  0.9086705427520018  1.0000
  H   H73       1.0  0.7358902774650999  0.497388004842319  0.6239471505078696  1.0000
  H   H74       1.0  0.7641097226734256  0.5026119950759063  0.12394715048417546  1.0000
  H   H75       1.0  0.2358902774189247  0.002611995537693968  0.3760528495395187  1.0000
  H   H76       1.0  0.26410972262725046  0.997388005222332  0.8760528495632128  1.0000
  H   H77       1.0  0.7679503904844139  0.617806271580184  0.6753960337582251  1.0000
  H   H78       1.0  0.7320496096541114  0.38219372833804127  0.175396033734531  1.0000
  H   H79       1.0  0.2679503904382389  0.8821937287180541  0.32460396628916316  1.0000
  H   H80       1.0  0.2320496096079363  0.11780627120017105  0.8246039663128572  1.0000
  H   H81       1.0  0.9358806449669452  0.5791911901354772  0.6162859078277787  1.0000
  H   H82       1.0  0.5641193551715802  0.4208088097827481  0.11628590780408458  1.0000
  H   H83       1.0  0.43588064492077006  0.9208088101627611  0.38371409221960956  1.0000
  H   H84       1.0  0.06411935512540509  0.0791911897554642  0.8837140922433038  1.0000
  C   C1        1.0  0.2692122287489501  0.6351511409788667  0.10153491745368104  1.0000
  C   C2        1.0  0.23078777129722503  0.36484885893935853  0.6015349174773751  1.0000
  C   C3        1.0  0.7692122287951253  0.8648488593193715  0.8984650825937073  1.0000
  C   C4        1.0  0.7307877713434002  0.13515114059885372  0.39846508257001306  1.0000
  C   C5        1.0  0.18143921668256655  0.546052069228057  0.06952680864510369  1.0000
  C   C6        1.0  0.3185607833636086  0.45394793069016814  0.5695268086687978  1.0000
  C   C7        1.0  0.6814392167287417  0.953947931070181  0.9304731909056503  1.0000
  C   C8        1.0  0.8185607834097838  0.04605206968984477  0.43047319088195607  1.0000
  C   C9        1.0  0.1903419418349653  0.5371588390503456  0.0006111482817369816  1.0000
  C   C10       1.0  0.30965805821120984  0.46284116086787963  0.5006111483054311  1.0000
  C   C11       1.0  0.6903419418811404  0.9628411604060919  0.9993888517656513  1.0000
  C   C12       1.0  0.8096580582573851  0.037158839512133286  0.49938885174195713  1.0000
  C   C13       1.0  0.288195551322353  0.6179224207120366  0.9659664877865133  1.0000
  C   C14       1.0  0.21180444872382212  0.3820775792061885  0.4659664877628192  1.0000
  C   C15       1.0  0.7881955513685281  0.8820775787444007  0.03403351226087494  1.0000
  C   C16       1.0  0.7118044487699973  0.11792242117382444  0.5340335122845691  1.0000
  C   C17       1.0  0.3758341668730175  0.7076028307497856  0.9966368573801111  1.0000
  C   C18       1.0  0.1241658331731576  0.29239716916843955  0.496636857356417  1.0000
  C   C19       1.0  0.8758341669191928  0.7923971687066518  0.0033631426672771627  1.0000
  C   C20       1.0  0.6241658332193327  0.20760283121157339  0.5033631426909713  1.0000
  C   C21       1.0  0.3661154366009585  0.7158957737073443  0.06556054380360075  1.0000
  C   C22       1.0  0.13388456344521665  0.28410422621088094  0.5655605438272949  1.0000
  C   C23       1.0  0.8661154366471336  0.7841042257490931  0.9344394562437874  1.0000
  C   C24       1.0  0.6338845634913918  0.21589577416913203  0.4344394562200934  1.0000
  C   C25       1.0  0.7611881847627643  0.805204763609091  0.2343354570074904  1.0000
  C   C26       1.0  0.7388118153757611  0.19479523630913423  0.7343354570311845  1.0000
  C   C27       1.0  0.2611881847165892  0.6947952366891472  0.7656645430398978  1.0000
  C   C28       1.0  0.23881181532958595  0.3052047632290781  0.26566454301620374  1.0000
  C   C29       1.0  0.6974799087928149  0.6276238746620472  0.5118200437381079  1.0000
  C   C30       1.0  0.8025200913457106  0.372376125256178  0.01182004371441375  1.0000
  C   C31       1.0  0.19747990874663973  0.8723761256361909  0.48817995630928035  1.0000
  C   C32       1.0  0.30252009129953544  0.12762387512383488  0.9881799563329746  1.0000
  C   C33       1.0  0.7847876219461988  0.5286293046456346  0.4889600680350581  1.0000
  C   C34       1.0  0.7152123781923267  0.47137069527259057  0.9889600680587523  1.0000
  C   C35       1.0  0.2847876219000237  0.9713706956526035  0.5110399320123301  1.0000
  C   C36       1.0  0.2152123781461515  0.028629304265621693  0.011039931988635981  1.0000
  C   C37       1.0  0.7794047034042196  0.4989959653525029  0.42203945087373373  1.0000
  C   C38       1.0  0.7205952967343059  0.5010040345657223  0.9220394508974279  1.0000
  C   C39       1.0  0.27940470335804446  0.0010040350275100295  0.5779605491736546  1.0000
  C   C40       1.0  0.22059529668813066  0.9989959648907153  0.07796054914996037  1.0000
  C   C41       1.0  0.688706792838107  0.5655157896507025  0.37548494618926154  1.0000
  C   C42       1.0  0.8112932073004185  0.4344842102675227  0.8754849462129557  1.0000
  C   C43       1.0  0.1887067927919318  0.9344842106475356  0.6245150533614924  1.0000
  C   C44       1.0  0.31129320725424336  0.06551578927068959  0.12451505383443255  1.0000
  C   C45       1.0  0.6048221635380763  0.6643838084043108  0.39724280785844995  1.0000
  C   C46       1.0  0.8951778366004493  0.3356161915139144  0.897242807882144  1.0000
  C   C47       1.0  0.10482216349190106  0.8356161918939273  0.6027571921889383  1.0000
  C   C48       1.0  0.39517783655427413  0.16438380802429786  0.1027571921652442  1.0000
  C   C49       1.0  0.6088610722953239  0.695787471354783  0.4639315827023968  1.0000
  C   C50       1.0  0.8911389278432015  0.30421252856344216  0.963931582726091  1.0000
  C   C51       1.0  0.10886107224914883  0.8042125281016544  0.5360684173449914  1.0000
  C   C52       1.0  0.3911389277970263  0.19578747181657077  0.03606841732129733  1.0000
  C   C53       1.0  0.6145391668595358  0.76082909619158  0.599781457081951  1.0000
  C   C54       1.0  0.8854608332789896  0.23917090372664518  0.09978145705825685  1.0000
  C   C55       1.0  0.11453916681336065  0.7391709032648575  0.4002185429654373  1.0000
  C   C56       1.0  0.3854608332328145  0.2608290966533678  0.9002185429891314  1.0000
  C   C57       1.0  0.7888846573993475  0.5841779407353918  0.625429303538371  1.0000
  C   C58       1.0  0.711115342739178  0.4158220591828335  0.12542930351467688  1.0000
  C   C59       1.0  0.2888846573531724  0.9158220595628465  0.37457069650901725  1.0000
  C   C60       1.0  0.21111534269300278  0.08417794035537877  0.8745706965327115  1.0000
  N   N1        1.0  0.6038815650858569  0.857001042039591  0.24595585272538636  1.0000
  N   N2        1.0  0.8961184350526685  0.14299895787863412  0.7459558527490805  1.0000
  N   N3        1.0  0.10388156503968177  0.6429989582586471  0.7540441473220019  1.0000
  N   N4        1.0  0.3961184350064934  0.35700104165957813  0.25404414729830777  1.0000
  N   N5        1.0  0.7623263060635388  0.7000613396851455  0.2105865793440939  1.0000
  N   N6        1.0  0.7376736940749867  0.2999386602330797  0.710586579367788  1.0000
  N   N7        1.0  0.26232630601736356  0.7999386606130926  0.7894134207032943  1.0000
  N   N8        1.0  0.23767369402881156  0.20006134014693322  0.2894134206796002  1.0000
  N   N9        1.0  0.9170812852314  0.8581229409469305  0.24692375877933972  1.0000
  N   N10       1.0  0.5829187149071254  0.14187705981309534  0.7469237588030339  1.0000
  N   N11       1.0  0.41708128518522486  0.6418770593513077  0.7530762412680485  1.0000
  N   N12       1.0  0.08291871486095033  0.35812294056691757  0.2530762412443544  1.0000
  N   N13       1.0  0.6968322739186773  0.6559024553030832  0.5780979614383012  1.0000
  N   N14       1.0  0.8031677262198481  0.34409754461514197  0.07809796141460709  1.0000
  N   N15       1.0  0.1968322738725022  0.844097544995155  0.421902038609087  1.0000
  N   N16       1.0  0.30316772617367294  0.15590245492307028  0.9219020386327812  1.0000
  O   O1        1.0  0.09641830392503832  0.5854585981993937  0.21026223540511396  1.0000
  O   O2        1.0  0.4035816961211368  0.41454140171883147  0.7102622354288081  1.0000
  O   O3        1.0  0.5964183039712135  0.9145414020988445  0.7897377641456399  1.0000
  O   O4        1.0  0.903581696167312  0.08545859781938077  0.2897377641219458  1.0000
  O   O5        1.0  0.4262960204092391  0.5862471221522763  0.21392698112510547  1.0000
  O   O6        1.0  0.07370397963693608  0.4137528786077496  0.7139269811487996  1.0000
  O   O7        1.0  0.9262960204554143  0.913752878145962  0.7860730189222828  1.0000
  O   O8        1.0  0.5737039796831113  0.08624712177226335  0.28607301889858866  1.0000
  O   O9        1.0  0.26166342745712035  0.7643906513096473  0.20606032055077605  1.0000
  O   O10       1.0  0.2383365712367051  0.2356093486085779  0.7060603205744701  1.0000
  O   O11       1.0  0.7616634275032954  0.7356093489885909  0.7939396794966121  1.0000
  O   O12       1.0  0.7383365712828802  0.2643906509296344  0.2939396794729181  1.0000
  F   F1        1.0  0.2980034568876605  0.6088051545442533  0.8987177125345053  1.0000
  F   F2        1.0  0.20199654315851465  0.39119484537397187  0.398717712510811  1.0000
  F   F3        1.0  0.7980034569338357  0.8911948457539848  0.10128228751288311  1.0000
  F   F4        1.0  0.7019965432046897  0.10880515500604107  0.6012822875365773  1.0000
  S   S1        1.0  0.2626222704594862  0.643640376701623  0.18929055135348868  1.0000
  S   S2        1.0  0.23737772958668896  0.35635962321660225  0.6892905513771829  1.0000
  S   S3        1.0  0.7626222705056613  0.8563596227548146  0.8107094486938996  1.0000
  S   S4        1.0  0.7373777296328641  0.1436403771634107  0.3107094486702055  1.0000
