data_image0
_chemical_formula_structural       H80C80F24P4S48
_chemical_formula_sum              "H80 C80 F24 P4 S48"
_cell_length_a       12.976156596888732
_cell_length_b       15.171506409564003
_cell_length_c       15.40799409127659
_cell_angle_alpha    90.0
_cell_angle_beta     107.09477496565057
_cell_angle_gamma    90.0

_space_group_name_H-M_alt    "P 1"
_space_group_IT_number       1

loop_
  _space_group_symop_operation_xyz
  'x, y, z'

loop_
  _atom_site_type_symbol
  _atom_site_label
  _atom_site_symmetry_multiplicity
  _atom_site_fract_x
  _atom_site_fract_y
  _atom_site_fract_z
  _atom_site_occupancy
  H   H1        1.0  0.9967891107691722  0.266856907330427  0.2663690160770635  1.0000
  H   H2        1.0  0.003210889383825226  0.7668569070152308  0.7336309843188802  1.0000
  H   H3        1.0  0.17604473426579817  0.25821726361532626  0.2228295615779  1.0000
  H   H4        1.0  0.8239552656498769  0.7582172639592605  0.7771704381390311  1.0000
  H   H5        1.0  0.44855057541859295  0.5158071452329097  0.8711811973151914  1.0000
  H   H6        1.0  0.5514494247344046  0.015807145548105916  0.1288188030807523  1.0000
  H   H7        1.0  0.4949113811599789  0.3181333678874085  0.8760512324589672  1.0000
  H   H8        1.0  0.5050886187556962  0.8181333675722123  0.12394876725796376  1.0000
  H   H9        1.0  0.3512468464201083  0.48300022306160617  0.9879974138960611  1.0000
  H   H10       1.0  0.6487531534955668  0.9830002234055403  0.012002585820869905  1.0000
  H   H11       1.0  0.49234670994951985  0.47162297116978424  0.03261150790151591  1.0000
  H   H12       1.0  0.5076532902034776  0.971622970854588  0.9673884924944276  1.0000
  H   H13       1.0  0.4094367658011203  0.37571819476058294  0.0037421721146188376  1.0000
  H   H14       1.0  0.5905632341145548  0.8757181944453868  0.9962578276023122  1.0000
  H   H15       1.0  0.690835708584378  0.35621308946573543  0.9338300827912936  1.0000
  H   H16       1.0  0.3091642913312968  0.8562130898096696  0.06616991692563726  1.0000
  H   H17       1.0  0.623029523063798  0.37784246107468367  0.015216376080114082  1.0000
  H   H18       1.0  0.3769704770891994  0.8778424607594875  0.9847836243158296  1.0000
  H   H19       1.0  0.6568309342455988  0.46716184725941673  0.9528003936741725  1.0000
  H   H20       1.0  0.3431690656700762  0.9671618469442206  0.04719960604275842  1.0000
  H   H21       1.0  0.3196527711156316  0.6397204099575579  0.7711317616622869  1.0000
  H   H22       1.0  0.6803472290373659  0.13972041027275406  0.2288682387336567  1.0000
  H   H23       1.0  0.501242958756284  0.6324753950570791  0.731688263655114  1.0000
  H   H24       1.0  0.49875704139671356  0.13247539537227532  0.2683117367408297  1.0000
  H   H25       1.0  0.01774589947683288  0.38227766666228313  0.1386343461337315  1.0000
  H   H26       1.0  0.9822541004388422  0.8822776663470869  0.8613656535831995  1.0000
  H   H27       1.0  0.06893988415915327  0.5659081213311589  0.07892016183126072  1.0000
  H   H28       1.0  0.9310601157565218  0.06590812098722475  0.9210798378856704  1.0000
  H   H29       1.0  0.8237107483005571  0.4359851073081469  0.06875123453869425  1.0000
  H   H30       1.0  0.17628925161511785  0.9359851069929507  0.9312487651782367  1.0000
  H   H31       1.0  0.8927415703995313  0.41593879010076157  0.9879061578874809  1.0000
  H   H32       1.0  0.10725842975346614  0.9159387897855653  0.012093842508462538  1.0000
  H   H33       1.0  0.8754874965610693  0.5266638199462504  0.020721711937908404  1.0000
  H   H34       1.0  0.12451250335460574  0.0266638196023163  0.9792782877790226  1.0000
  H   H35       1.0  0.18006509830349615  0.4764125825661972  0.9978952047050434  1.0000
  H   H36       1.0  0.8199349016121789  0.9764125829101313  0.0021047950118874407  1.0000
  H   H37       1.0  0.040384012934837774  0.46112662389212605  0.9518097747758941  1.0000
  H   H38       1.0  0.9596159872181597  0.9611266235769299  0.04819022562004952  1.0000
  H   H39       1.0  0.1200294231198933  0.3787896623355249  0.02468296406814744  1.0000
  H   H40       1.0  0.8799705770331042  0.8787896620203287  0.9753170363277962  1.0000
  H   H41       1.0  0.35795531583075435  0.6535879755321518  0.08160279949591562  1.0000
  H   H42       1.0  0.6420446843222432  0.15358797584734793  0.918397200900028  1.0000
  H   H43       1.0  0.5302434629325333  0.6559361741248466  0.02915894031130548  1.0000
  H   H44       1.0  0.46975653698314185  0.15593617378091248  0.9708410594056255  1.0000
  H   H45       1.0  0.8518736322821463  0.6056344308833902  0.7124436870615753  1.0000
  H   H46       1.0  0.1481263676335288  0.105634430539456  0.2875563126553556  1.0000
  H   H47       1.0  0.863290050831017  0.4213389941271958  0.6356271633084682  1.0000
  H   H48       1.0  0.1367099493219805  0.9213389938119996  0.36437283708747537  1.0000
  H   H49       1.0  0.7541742856434616  0.5296246162434252  0.81212791619601  1.0000
  H   H50       1.0  0.24582571450953594  0.02962461655862137  0.18787208419993368  1.0000
  H   H51       1.0  0.8924892230786242  0.5024049203970279  0.8415906950945272  1.0000
  H   H52       1.0  0.10751077683705097  0.0024049200530936953  0.15840930462240377  1.0000
  H   H53       1.0  0.7943370869720766  0.4255146460558707  0.7788944018660682  1.0000
  H   H54       1.0  0.2056629129435985  0.9255146463998049  0.22110559785086278  1.0000
  H   H55       1.0  0.0655245784507704  0.43994333718847994  0.6923517829492354  1.0000
  H   H56       1.0  0.9344754217022271  0.9399433375324141  0.30764821744670817  1.0000
  H   H57       1.0  0.0074693540777582825  0.42585806086646033  0.7817588918945519  1.0000
  H   H58       1.0  0.9925306458379168  0.9258580605512642  0.218241107822379  1.0000
  H   H59       1.0  0.04898673998972798  0.5328239959681308  0.7571117253966622  1.0000
  H   H60       1.0  0.9510132601632695  0.03282399628332696  0.24288827499928137  1.0000
  H   H61       1.0  0.9735633530300744  0.23087032463644847  0.9700299905925795  1.0000
  H   H62       1.0  0.02643664712292304  0.7308703249803826  0.02997000980336401  1.0000
  H   H63       1.0  0.14398420472227386  0.2247855518058609  0.9149855023186881  1.0000
  H   H64       1.0  0.8560157951934013  0.7247855514906647  0.08501449739824286  1.0000
  H   H65       1.0  0.5836651244355909  0.2921414954025896  0.2978375197438338  1.0000
  H   H66       1.0  0.41633487548008413  0.7921414957465237  0.7021624799730971  1.0000
  H   H67       1.0  0.41256473723848636  0.3804641447049213  0.27479056308972805  1.0000
  H   H68       1.0  0.5874352626771887  0.8804641443897252  0.725209436627203  1.0000
  H   H69       1.0  0.476810421946935  0.4063071961077034  0.19240010421525336  1.0000
  H   H70       1.0  0.5231895779687401  0.9063071964516375  0.8075998955016777  1.0000
  H   H71       1.0  0.4887676251356126  0.47984202909546214  0.28544472859942005  1.0000
  H   H72       1.0  0.5112323747800626  0.9798420294393964  0.714555271117511  1.0000
  H   H73       1.0  0.7711144193120335  0.4380968455320983  0.21358131643539968  1.0000
  H   H74       1.0  0.228885580840964  0.9380968452169021  0.7864186839605439  1.0000
  H   H75       1.0  0.6309706308789733  0.45975262058373617  0.17751601161377698  1.0000
  H   H76       1.0  0.36902936927402413  0.95975262026854  0.8224839887821667  1.0000
  H   H77       1.0  0.6792051939604705  0.3487279678875372  0.18103486132147845  1.0000
  H   H78       1.0  0.3207948061925269  0.848727967572341  0.8189651390744651  1.0000
  H   H79       1.0  0.6946822164417085  0.4715334566572936  0.3439102284095914  1.0000
  H   H80       1.0  0.30531778347396665  0.9715334563420975  0.6560897713073396  1.0000
  C   C1        1.0  0.07686398830721156  0.27919994466269554  0.31236087976038657  1.0000
  C   C2        1.0  0.923136011845786  0.7791999443474994  0.6876391206355571  1.0000
  C   C3        1.0  0.1696963802323256  0.2749020313085612  0.2897798518959173  1.0000
  C   C4        1.0  0.8303036196833495  0.774902030993365  0.7102201478210136  1.0000
  C   C5        1.0  0.22595337116162434  0.3167659604962135  0.45780982515193575  1.0000
  C   C6        1.0  0.7740466289913731  0.8167659608401476  0.5421901752440079  1.0000
  C   C7        1.0  0.2804355625257039  0.34336823578151904  0.5448611971502014  1.0000
  C   C8        1.0  0.7195644373899712  0.8433682354663228  0.45513880256672956  1.0000
  C   C9        1.0  0.32637933682077463  0.3887299811099961  0.7134138861394846  1.0000
  C   C10       1.0  0.6736206630949004  0.8887299807947999  0.2865861135774464  1.0000
  C   C11       1.0  0.4227987836994888  0.3860958662817674  0.694161924275837  1.0000
  C   C12       1.0  0.5772012164535086  0.8860958659665712  0.30583807612010655  1.0000
  C   C13       1.0  0.4327650752477229  0.44789897499672765  0.888453569744304  1.0000
  C   C14       1.0  0.5672349249052746  0.9478989753406617  0.1115464306516396  1.0000
  C   C15       1.0  0.5214983221425145  0.38676242830448293  0.8764211521782985  1.0000
  C   C16       1.0  0.47850167801048304  0.8867624279892867  0.12357884821764509  1.0000
  C   C17       1.0  0.4204788590182139  0.4436446057694694  0.9839088391625684  1.0000
  C   C18       1.0  0.5795211408974612  0.9436446054542732  0.016091160554362577  1.0000
  C   C19       1.0  0.6296177981360225  0.3984703744506893  0.9489045233506248  1.0000
  C   C20       1.0  0.37038220177965264  0.8984703747946233  0.05109547636630619  1.0000
  C   C21       1.0  0.32823478874263134  0.6211913692406262  0.7055008161052138  1.0000
  C   C22       1.0  0.6717652114103662  0.12119136889669213  0.29449918429072974  1.0000
  C   C23       1.0  0.42232503465805044  0.6181427899663333  0.6849311041315677  1.0000
  C   C24       1.0  0.5776749654949471  0.11814278962239914  0.3150688962643759  1.0000
  C   C25       1.0  0.27736846912847407  0.575215858887858  0.5390382485677272  1.0000
  C   C26       1.0  0.7226315310245234  0.07521585920305418  0.46096175182821636  1.0000
  C   C27       1.0  0.22641061586230235  0.5485627264246842  0.4511457627929583  1.0000
  C   C28       1.0  0.7735893840533727  0.04856272673988036  0.5488542369239727  1.0000
  C   C29       1.0  0.09028244681896834  0.5143879519492139  0.2963019085433187  1.0000
  C   C30       1.0  0.9097175530967068  0.014387951605279855  0.7036980911736124  1.0000
  C   C31       1.0  0.1890727421451695  0.5130845342485476  0.28109273589157335  1.0000
  C   C32       1.0  0.8109272572372815  0.013084534563743748  0.7189072645046506  1.0000
  C   C33       1.0  0.9971925773839623  0.45144730622678025  0.12113616169198192  1.0000
  C   C34       1.0  0.0028074227690351086  0.9514473059115841  0.8788638387039617  1.0000
  C   C35       1.0  0.08858452079118266  0.4961255815213612  0.09412256154483625  1.0000
  C   C36       1.0  0.9114154791244925  0.9961255812061651  0.9058774381720948  1.0000
  C   C37       1.0  0.8909016017096738  0.4584220612144125  0.04491937440053783  1.0000
  C   C38       1.0  0.10909839820600137  0.9584220615583466  0.9550806253163932  1.0000
  C   C39       1.0  0.10856542991042986  0.44977739822186197  0.012441959313806449  1.0000
  C   C40       1.0  0.8914345700052452  0.9497773979066659  0.9875580404031246  1.0000
  C   C41       1.0  0.44002873925756125  0.6536531437477072  0.12677151154231206  1.0000
  C   C42       1.0  0.5599712606581139  0.1536531440629034  0.8732284881746188  1.0000
  C   C43       1.0  0.5295420742529336  0.654639364205721  0.09953658489581325  1.0000
  C   C44       1.0  0.4704579256627414  0.15463936386178692  0.9004634148211178  1.0000
  C   C45       1.0  0.5978827180510244  0.652211179488561  0.27366169716464245  1.0000
  C   C46       1.0  0.40211728210197295  0.15221117914462678  0.7263383032313011  1.0000
  C   C47       1.0  0.6574762582066762  0.6375764745353314  0.36183061302639025  1.0000
  C   C48       1.0  0.3425237417089988  0.13757647485052757  0.6381693866905408  1.0000
  C   C49       1.0  0.7079327307648076  0.5756142260530454  0.5239934626533328  1.0000
  C   C50       1.0  0.29206726938818983  0.07561422570911121  0.47600653774261076  1.0000
  C   C51       1.0  0.801672920607046  0.5762335304086152  0.5008721026748566  1.0000
  C   C52       1.0  0.1983270795459515  0.07623353072381148  0.49912789772108695  1.0000
  C   C53       1.0  0.8246826038046217  0.5369504365673672  0.7006408784640433  1.0000
  C   C54       1.0  0.17531739634837573  0.03695043688256335  0.2993591219319003  1.0000
  C   C55       1.0  0.9006715370720118  0.48493911226653413  0.6603488568363028  1.0000
  C   C56       1.0  0.09932846284366341  0.9849391126104683  0.33965114288062814  1.0000
  C   C57       1.0  0.8154299327313196  0.4957285767785624  0.7884310126643288  1.0000
  C   C58       1.0  0.18457006718435545  0.9957285764633662  0.21156898705260213  1.0000
  C   C59       1.0  0.012254778225706397  0.4706614562347344  0.727314503467027  1.0000
  C   C60       1.0  0.9877452216899687  0.9706614559195382  0.2726854962499041  1.0000
  C   C61       1.0  0.9732220948685097  0.2333176854322488  0.899397929485314  1.0000
  C   C62       1.0  0.026777905047165276  0.7333176857761828  0.1006020702316169  1.0000
  C   C63       1.0  0.061653223341715524  0.23003401084812214  0.8707777342766186  1.0000
  C   C64       1.0  0.9383467765739596  0.7300340105329259  0.12922226544031246  1.0000
  C   C65       1.0  0.9023189001243237  0.24277385057017875  0.7253556584240891  1.0000
  C   C66       1.0  0.09768109979135137  0.7427738509141129  0.2746443412928418  1.0000
  C   C67       1.0  0.8417290440811964  0.2572800448833066  0.6372501098277836  1.0000
  C   C68       1.0  0.15827095607180094  0.7572800452272407  0.3627498905681599  1.0000
  C   C69       1.0  0.6992343517810888  0.32013260179214975  0.498009923387536  1.0000
  C   C70       1.0  0.3007656481345862  0.8201326014769537  0.501990076329395  1.0000
  C   C71       1.0  0.7918007833917989  0.3154839724407795  0.47320051758822457  1.0000
  C   C72       1.0  0.20819921676119854  0.8154839721255833  0.526799482807719  1.0000
  C   C73       1.0  0.5859876017431217  0.3610461454603449  0.32003321087625636  1.0000
  C   C74       1.0  0.41401239840987586  0.8610461451451488  0.6799667895196873  1.0000
  C   C75       1.0  0.4853121162444366  0.4102235824174072  0.26506557214713633  1.0000
  C   C76       1.0  0.5146878836712385  0.9102235821022111  0.7349344275697948  1.0000
  C   C77       1.0  0.6923611294368762  0.4130120820467737  0.21504687374127462  1.0000
  C   C78       1.0  0.30763887047879895  0.9130120823907077  0.7849531259756564  1.0000
  C   C79       1.0  0.6886940123033256  0.4058700595557379  0.3129877709704824  1.0000
  C   C80       1.0  0.3113059878496718  0.905870059899672  0.6870122294254611  1.0000
  F   F1        1.0  0.6979764539511933  0.8133280972165907  0.9008477789579105  1.0000
  F   F2        1.0  0.30202354620180405  0.3133280975317869  0.09915222143803319  1.0000
  F   F3        1.0  0.6425272110084107  0.713210752307289  0.7824884975785766  1.0000
  F   F4        1.0  0.3574727889072645  0.21321075262248526  0.2175115021383544  1.0000
  F   F5        1.0  0.5438277812380785  0.7302933447014512  0.88556641079194  1.0000
  F   F6        1.0  0.4561722186775966  0.2302933450166474  0.11443358892499114  1.0000
  F   F7        1.0  0.6417106028517835  0.6030322370778288  0.8864326788192345  1.0000
  F   F8        1.0  0.35828939706389173  0.10303223673389476  0.11356732089769651  1.0000
  F   F9        1.0  0.6981020612730388  0.7028983043686077  0.004999821572323576  1.0000
  F   F10       1.0  0.3018979386426364  0.20289830468380385  0.9950001781446074  1.0000
  F   F11       1.0  0.7964108856838336  0.6859599791250444  0.9021694048662052  1.0000
  F   F12       1.0  0.20358911446916386  0.1859599794402406  0.09783059552973837  1.0000
  F   F13       1.0  0.7951971392364797  0.20326634855823944  0.9970180628122974  1.0000
  F   F14       1.0  0.20480286067919545  0.7032663482430432  0.0029819369046336463  1.0000
  F   F15       1.0  0.8572913333358376  0.1655131713497502  0.2168087759643467  1.0000
  F   F16       1.0  0.14270866681715974  0.6655131710345541  0.7831912244315969  1.0000
  F   F17       1.0  0.8724316558471394  0.2842284868483223  0.12770998792614455  1.0000
  F   F18       1.0  0.12756834430585803  0.7842284865331262  0.872290012469799  1.0000
  F   F19       1.0  0.778237381346679  0.0840293900674453  0.08694248691146965  1.0000
  F   F20       1.0  0.22176261880631845  0.5840293904113794  0.9130575134844738  1.0000
  F   F21       1.0  0.7058979070489776  0.2183055018130649  0.10665908050105043  1.0000
  F   F22       1.0  0.2941020931040198  0.7183055014978688  0.8933409198948932  1.0000
  F   F23       1.0  0.9451101859333579  0.1493991083555913  0.106286031188471  1.0000
  F   F24       1.0  0.054889813982317175  0.6493991086995254  0.8937139685284601  1.0000
  P   P1        1.0  0.6701200603989598  0.7085570285376117  0.8937931781594749  1.0000
  P   P2        1.0  0.3298799395167153  0.2085570281936776  0.1062068215574562  1.0000
  P   P3        1.0  0.8257375847155854  0.18390039226699179  0.10695487763071307  1.0000
  P   P4        1.0  0.17426241520008978  0.6839003919517955  0.893045122086218  1.0000
  S   S1        1.0  0.08665194900955274  0.30490202588478077  0.4231636222948898  1.0000
  S   S2        1.0  0.9133480509061224  0.8049020262287149  0.5768363774220413  1.0000
  S   S3        1.0  0.2882530599071059  0.2947345075226781  0.37466226985094603  1.0000
  S   S4        1.0  0.7117469400085692  0.794734507207482  0.6253377298659849  1.0000
  S   S5        1.0  0.2123981975955069  0.36100563069645747  0.6247963123536845  1.0000
  S   S6        1.0  0.7876018025574906  0.8610056310403916  0.3752036880422591  1.0000
  S   S7        1.0  0.41882113169467133  0.3579345546449305  0.5836020404132666  1.0000
  S   S8        1.0  0.5811788684583261  0.8579345549888647  0.4163979599826769  1.0000
  S   S9        1.0  0.2998102171845964  0.4163929526482365  0.8137805066422278  1.0000
  S   S10       1.0  0.7001897827310788  0.9163929529921706  0.18621949307470317  1.0000
  S   S11       1.0  0.549613723705886  0.4057791602104276  0.768455566389506  1.0000
  S   S12       1.0  0.4503862764471114  0.9057791605543617  0.23154443400643768  1.0000
  S   S13       1.0  0.21213500928003012  0.595595398773567  0.6204210178104894  1.0000
  S   S14       1.0  0.787864990635645  0.09559539908876323  0.37957898190644157  1.0000
  S   S15       1.0  0.41623546978392933  0.5905208611553733  0.5752362154142618  1.0000
  S   S16       1.0  0.5837645303690682  0.09052086081143915  0.42476378498168177  1.0000
  S   S17       1.0  0.08886302383122323  0.5314397128631412  0.4079100662395672  1.0000
  S   S18       1.0  0.9111369760844518  0.03143971317833742  0.5920899334773637  1.0000
  S   S19       1.0  0.30016901631957693  0.5320836370547325  0.37507790266675767  1.0000
  S   S20       1.0  0.6998309838334205  0.032083637369928676  0.6249220977291859  1.0000
  S   S21       1.0  0.21962239331304778  0.49229360475975564  0.18098928954174662  1.0000
  S   S22       1.0  0.7803776066026272  0.9922936051036898  0.8190107101751843  1.0000
  S   S23       1.0  0.9651480650338109  0.501656392222341  0.2176563458398409  1.0000
  S   S24       1.0  0.03485193511918653  0.0016563918784068972  0.7823436545561027  1.0000
  S   S25       1.0  0.45704970894465496  0.6599601390728175  0.24246816747772512  1.0000
  S   S26       1.0  0.5429502909710201  0.15996013938801362  0.7575318322392058  1.0000
  S   S27       1.0  0.6530431673389253  0.6615323336430919  0.18341368373927394  1.0000
  S   S28       1.0  0.34695683257674975  0.16153233395828806  0.8165863159776571  1.0000
  S   S29       1.0  0.5961190996116154  0.6263218044063085  0.44796041230078426  1.0000
  S   S30       1.0  0.4038809003040597  0.1263218040623743  0.5520395874161468  1.0000
  S   S31       1.0  0.7978808434600917  0.6270693491585455  0.39740303413673433  1.0000
  S   S32       1.0  0.2021191564555833  0.12706934947374168  0.6025969655801967  1.0000
  S   S33       1.0  0.6872314430749806  0.5377260042455104  0.6236782883095408  1.0000
  S   S34       1.0  0.3127685570780167  0.03772600456070654  0.37632171208640275  1.0000
  S   S35       1.0  0.9278937218121768  0.5392512397346779  0.5635559409058574  1.0000
  S   S36       1.0  0.07210627757027449  0.03925124004987409  0.4364440594903667  1.0000
  S   S37       1.0  0.8485354876446785  0.23759538194095461  0.8168072533032172  1.0000
  S   S38       1.0  0.15146451227099664  0.7375953822848887  0.1831927464137138  1.0000
  S   S39       1.0  0.0423786958939568  0.23032918259172544  0.7546609160258068  1.0000
  S   S40       1.0  0.9576213042590407  0.7303291822765293  0.2453390843701369  1.0000
  S   S41       1.0  0.7025124365303475  0.2732053467931875  0.6029960693289307  1.0000
  S   S42       1.0  0.2974875636226499  0.7732053464779913  0.39700393106701287  1.0000
  S   S43       1.0  0.9021934486439585  0.26343737807608114  0.5499075100148622  1.0000
  S   S44       1.0  0.09780655050117032  0.7634373777608849  0.45009248970234916  1.0000
  S   S45       1.0  0.5756267668606346  0.36219953389308285  0.4356909160553659  1.0000
  S   S46       1.0  0.4243732330550405  0.862199534237017  0.5643090836615652  1.0000
  S   S47       1.0  0.8132636181870775  0.3478837748552668  0.37208051818389537  1.0000
  S   S48       1.0  0.18673638196591993  0.8478837751992009  0.6279194822120482  1.0000
