data_image0
_chemical_formula_structural       H36C52N16O16Cl4
_chemical_formula_sum              "H36 C52 N16 O16 Cl4"
_cell_length_a       14.63238086946461
_cell_length_b       5.089206823246781
_cell_length_c       17.988922102269356
_cell_angle_alpha    90.0
_cell_angle_beta     92.8278496153768
_cell_angle_gamma    90.0

_space_group_name_H-M_alt    "P 1"
_space_group_IT_number       1

loop_
  _space_group_symop_operation_xyz
  'x, y, z'

loop_
  _atom_site_type_symbol
  _atom_site_label
  _atom_site_symmetry_multiplicity
  _atom_site_fract_x
  _atom_site_fract_y
  _atom_site_fract_z
  _atom_site_occupancy
  H   H1        1.0  0.17370123785343888  0.9019986236423789  0.6870222266012076  1.0000
  H   H2        1.0  0.32629876236012867  0.4019986219964231  0.8129777738281394  1.0000
  H   H3        1.0  0.8262987627865038  0.09800137768458995  0.312977773694423  1.0000
  H   H4        1.0  0.6737012375963338  0.598001377365603  0.18702222646640757  1.0000
  H   H5        1.0  0.17786979919195817  0.1384838275349111  0.4192531921929278  1.0000
  H   H6        1.0  0.3221302011442267  0.6384838272159242  0.08074680823317472  1.0000
  H   H7        1.0  0.8221302007645043  0.861516171827115  0.5807468081016192  1.0000
  H   H8        1.0  0.6778697988122359  0.361516172146102  0.9192531920613722  1.0000
  H   H9        1.0  0.06841305278810685  0.7978673555675027  0.46070481994831924  1.0000
  H   H10       1.0  0.43158694751565096  0.2978673558864896  0.039295179921208886  1.0000
  H   H11       1.0  0.931586947819409  0.2021326437945235  0.539295179790737  1.0000
  H   H12       1.0  0.5684130524083845  0.7021326454404794  0.9607048198167639  1.0000
  H   H13       1.0  0.3321131926471075  0.6275073780480828  0.41323494537138084  1.0000
  H   H14       1.0  0.16788680768907738  0.12750737640212692  0.08676505505472167  1.0000
  H   H15       1.0  0.667886807309355  0.3724926232788861  0.5867650549231662  1.0000
  H   H16       1.0  0.8321131922673851  0.8724926229598993  0.9132349452398253  1.0000
  H   H17       1.0  0.29442729776548104  0.8357103214144147  0.2409272213794628  1.0000
  H   H18       1.0  0.20557270253827675  0.33571031976845894  0.2590727784900654  1.0000
  H   H19       1.0  0.7055727021909814  0.1642896799125541  0.7590727789150843  1.0000
  H   H20       1.0  0.7944272973857587  0.6642896795935672  0.7409272212479073  1.0000
  H   H21       1.0  0.33551974240996235  0.159479790896414  0.14476876423529958  1.0000
  H   H22       1.0  0.16448025721031526  0.6594797905774271  0.35523123563314496  1.0000
  H   H23       1.0  0.664480257514073  0.8405202084656122  0.8552312355026731  1.0000
  H   H24       1.0  0.8355197427461473  0.34052020878459904  0.6447687646614021  1.0000
  H   H25       1.0  0.4548503479067423  0.4992189604860951  0.17197605955050513  1.0000
  H   H26       1.0  0.04514965171353533  0.9992189621320509  0.32802394031793947  1.0000
  H   H27       1.0  0.5451496520172932  0.5007810388759312  0.8280239401874675  1.0000
  H   H28       1.0  0.9548503482105001  0.0007810391949180279  0.6719760594200332  1.0000
  H   H29       1.0  0.5407909677749422  0.24027318646481843  0.44190742279988293  1.0000
  H   H30       1.0  0.9592090319244153  0.7402731861458315  0.0580925773598641  1.0000
  H   H31       1.0  0.4592090321815203  0.7597268148621504  0.5580925774946642  1.0000
  H   H32       1.0  0.040790967999620155  0.2597268151811374  0.9419074223781084  1.0000
  H   H33       1.0  0.5377787334778273  0.5256717172074487  0.29546017395412405  1.0000
  H   H34       1.0  0.9622212668725834  0.025671717526435593  0.20453982565013218  1.0000
  H   H35       1.0  0.46222126644620815  0.47432828215457745  0.7045398257838487  1.0000
  H   H36       1.0  0.03777873373493238  0.9743282818355906  0.7954601740889241  1.0000
  C   C1        1.0  0.11565969318489608  0.8946211753868869  0.5003811118685095  1.0000
  C   C2        1.0  0.3843403069962444  0.39462117374093114  0.9996188880042632  1.0000
  C   C3        1.0  0.8843403067391394  0.10537882594008197  0.4996188878694631  1.0000
  C   C4        1.0  0.6156596936436982  0.605378825621095  0.0003811122913675001  1.0000
  C   C5        1.0  0.17663638163771286  0.08420995940711026  0.47767592455651375  1.0000
  C   C6        1.0  0.32336361798256474  0.5842099590881233  0.022324075311930834  1.0000
  C   C7        1.0  0.8233636182863225  0.9157900419198587  0.522324075181459  1.0000
  C   C8        1.0  0.6766363819414706  0.4157900422388455  0.9776759244260417  1.0000
  C   C9        1.0  0.23818615734852808  0.21006650488571815  0.5283270434529143  1.0000
  C   C10       1.0  0.2618138421491322  0.7100665045667313  0.9716729564187749  1.0000
  C   C11       1.0  0.7618138425755073  0.789933494476308  0.47167295628505845  1.0000
  C   C12       1.0  0.7381861578073303  0.28993349479529495  0.02832704387577214  1.0000
  C   C13       1.0  0.2349333703850461  0.13734907113758402  0.6032421254986534  1.0000
  C   C14       1.0  0.2650666297960944  0.6373490727835398  0.8967578743741194  1.0000
  C   C15       1.0  0.7650666295389894  0.8626509282244421  0.3967578742393193  1.0000
  C   C16       1.0  0.7349333701279411  0.36265092854342906  0.10324212536385333  1.0000
  C   C17       1.0  0.11543212002259463  0.8285621525025466  0.575691271792654  1.0000
  C   C18       1.0  0.38456787947506565  0.3285621528215335  0.9243087280790352  1.0000
  C   C19       1.0  0.8845678799014408  0.17143784685947955  0.4243087279453187  1.0000
  C   C20       1.0  0.6154321204489698  0.6714378485054353  0.07569127165893753  1.0000
  C   C21       1.0  0.1745145300516958  0.9506062315843532  0.6281778641887777  1.0000
  C   C22       1.0  0.3254854701294447  0.45060623190334015  0.8718221356839949  1.0000
  C   C23       1.0  0.8254854698723397  0.04939376974261566  0.3718221355491949  1.0000
  C   C24       1.0  0.6745145298270178  0.5493937694236287  0.12817786461055208  1.0000
  C   C25       1.0  0.3029054597076428  0.41397197700366273  0.5026904413422969  1.0000
  C   C26       1.0  0.19709453979001748  0.9139719766846758  0.9973095585293923  1.0000
  C   C27       1.0  0.6970945402163926  0.5860280223583634  0.49730955839567575  1.0000
  C   C28       1.0  0.8029054601340179  0.08602802267735031  0.0026904412085804394  1.0000
  C   C29       1.0  0.3704384083435539  0.16652066410996122  0.19968657797263104  1.0000
  C   C30       1.0  0.12956159196020395  0.6665206637909743  0.30031342189689714  1.0000
  C   C31       1.0  0.6295615915804815  0.8334793372170077  0.8003134217653417  1.0000
  C   C32       1.0  0.8704384079638315  0.33347933753599457  0.6996865778410756  1.0000
  C   C33       1.0  0.4385523785414035  0.35920269768752444  0.21523805791696088  1.0000
  C   C34       1.0  0.061447621078874116  0.8592026993334803  0.2847619419514837  1.0000
  C   C35       1.0  0.5614476213826319  0.6407973016745018  0.7847619418210119  1.0000
  C   C36       1.0  0.9385523788775884  0.14079730199348864  0.7152380583430634  1.0000
  C   C37       1.0  0.48541882263363906  0.37751919242580084  0.28398665442950216  1.0000
  C   C38       1.0  0.01458117698663858  0.877519192106814  0.2160133454389424  1.0000
  C   C39       1.0  0.5145811772903964  0.6224808069362253  0.7160133453084705  1.0000
  C   C40       1.0  0.9854188229373969  0.12248080725521224  0.7839866542990304  1.0000
  C   C41       1.0  0.4608460987345134  0.19481436978964836  0.33760988084140564  1.0000
  C   C42       1.0  0.03915390156924446  0.6948143714356041  0.16239011902812253  1.0000
  C   C43       1.0  0.5391539011895221  0.8051856295723778  0.6623901188965671  1.0000
  C   C44       1.0  0.9608460990382711  0.3051856298913647  0.8376098807109338  1.0000
  C   C45       1.0  0.3465397703901475  0.984445756284615  0.2526920189692006  1.0000
  C   C46       1.0  0.15346022991361039  0.48444575660360184  0.24730798090032746  1.0000
  C   C47       1.0  0.653460229566315  0.015554243077411182  0.7473079813253464  1.0000
  C   C48       1.0  0.8465397700104251  0.5155542427584242  0.7526920188376451  1.0000
  C   C49       1.0  0.3927695913903249  0.0015222804395788909  0.32271328079717865  1.0000
  C   C50       1.0  0.1072304089458599  0.501522280120592  0.17728671962892387  1.0000
  C   C51       1.0  0.6072304085661376  0.9984777189224473  0.6772867194973684  1.0000
  C   C52       1.0  0.8927695910106026  0.49847771924143414  0.8227132806656232  1.0000
  N   N1        1.0  0.2956578709878474  0.25700193869613086  0.6620453453347136  1.0000
  N   N2        1.0  0.20434212850981287  0.7570019403420867  0.8379546545369756  1.0000
  N   N3        1.0  0.704342128936188  0.7429980606658954  0.3379546544032591  1.0000
  N   N4        1.0  0.7956578714142226  0.24299806098488222  0.16204534520099706  1.0000
  N   N5        1.0  0.48967996193707125  0.14898305695430247  0.4097365356986857  1.0000
  N   N6        1.0  0.01032003771563341  0.6489830586002583  0.0902634647263333  1.0000
  N   N7        1.0  0.5103200380193913  0.8510169424077236  0.5902634645958614  1.0000
  N   N8        1.0  0.9896799622408291  0.3510169427267106  0.9097365355682139  1.0000
  N   N9        1.0  0.44489722796177666  0.9462074714676012  0.4379609511087464  1.0000
  N   N10       1.0  0.055102772374408235  0.4462074698216454  0.06203904931735612  1.0000
  N   N11       1.0  0.5551027719946858  0.05379252985936764  0.5620390491858007  1.0000
  N   N12       1.0  0.9448972275820543  0.5537925295403807  0.9379609509771909  1.0000
  N   N13       1.0  0.38648852859225996  0.8555401914717721  0.38664512009640795  1.0000
  N   N14       1.0  0.11351147102801767  0.355540191790759  0.11335487977203657  1.0000
  N   N15       1.0  0.6135114713317755  0.14445980789025403  0.6133548796415647  1.0000
  N   N16       1.0  0.8864885289284448  0.6444598075712671  0.8866451205225104  1.0000
  O   O1        1.0  0.26850965210772243  0.45944037670457605  0.6918403781077669  1.0000
  O   O2        1.0  0.2314903481058451  0.9594403763855892  0.8081596223215801  1.0000
  O   O3        1.0  0.73149034784874  0.5405596226574501  0.30815962218678006  1.0000
  O   O4        1.0  0.7685096518506174  0.04055962297643698  0.19184037797296694  1.0000
  O   O5        1.0  0.29016667125536616  0.4690206338435255  0.431223391087412  1.0000
  O   O6        1.0  0.20983332908081873  0.9690206335245386  0.06877660933869058  1.0000
  O   O7        1.0  0.7098333287010963  0.5309793655185007  0.5687766092071352  1.0000
  O   O8        1.0  0.7901666708756436  0.030979365837487578  0.9312233909558565  1.0000
  O   O9        1.0  0.3609396808684632  0.5167919837697006  0.5458880899515057  1.0000
  O   O10       1.0  0.13906031931267734  0.01679198408868754  0.9541119099212672  1.0000
  O   O11       1.0  0.6390603190555724  0.4832080155923255  0.4541119097864671  1.0000
  O   O12       1.0  0.8609396812948383  0.9832080152733387  0.045888089817789156  1.0000
  O   O13       1.0  0.36627747288725854  0.13607507889769627  0.6807340169595979  1.0000
  O   O14       1.0  0.133722527293882  0.6360750805436521  0.8192659829131749  1.0000
  O   O15       1.0  0.633722527036777  0.8639249204643298  0.31926598277837487  1.0000
  O   O16       1.0  0.8662774726301534  0.3639249207833168  0.18073401682479778  1.0000
  Cl  Cl1       1.0  0.04093590160864091  0.5940000465674554  0.6062342050349782  1.0000
  Cl  Cl2       1.0  0.4590640985724996  0.0940000468864424  0.8937657948377945  1.0000
  Cl  Cl3       1.0  0.9590640983478216  0.4059999547595134  0.39376579525956895  1.0000
  Cl  Cl4       1.0  0.5409359020350161  0.9059999544405264  0.10623420490126165  1.0000
