data_image0
_chemical_formula_structural       H64C68O20Cl4Br4
_chemical_formula_sum              "H64 C68 O20 Cl4 Br4"
_cell_length_a       12.196329181352253
_cell_length_b       10.623911777813683
_cell_length_c       13.010506621270313
_cell_angle_alpha    90.0
_cell_angle_beta     96.69064655697312
_cell_angle_gamma    90.0

_space_group_name_H-M_alt    "P 1"
_space_group_IT_number       1

loop_
  _space_group_symop_operation_xyz
  'x, y, z'

loop_
  _atom_site_type_symbol
  _atom_site_label
  _atom_site_symmetry_multiplicity
  _atom_site_fract_x
  _atom_site_fract_y
  _atom_site_fract_z
  _atom_site_occupancy
  H   H1        1.0  0.156803835375633  0.9897501259337365  0.3686214541884422  1.0000
  H   H2        1.0  0.8431961653609658  0.48975012583084054  0.6313785456039064  1.0000
  H   H3        1.0  0.2591382378163066  0.1703105294773403  0.23247692575877635  1.0000
  H   H4        1.0  0.7408617621906062  0.6703105295802364  0.7675230748023968  1.0000
  H   H5        1.0  0.45700594931980626  0.1241718020244591  0.2898807812848028  1.0000
  H   H6        1.0  0.5429940505962648  0.6241718021273551  0.7101192185025068  1.0000
  H   H7        1.0  0.4859475050948356  0.9661369469798329  0.4375626284728115  1.0000
  H   H8        1.0  0.5140524948212354  0.46613694687693685  0.562437371314498  1.0000
  H   H9        1.0  0.21491751825481792  0.0691139116510157  0.5007746635367331  1.0000
  H   H10       1.0  0.785082481661253  0.5691139117539118  0.4992253362505764  1.0000
  H   H11       1.0  0.22230975276727832  0.22152619573845206  0.6438747985203213  1.0000
  H   H12       1.0  0.7776902472396345  0.7215261958413481  0.3561252020408518  1.0000
  H   H13       1.0  0.355216434890856  0.5011863870254909  0.4517362399547519  1.0000
  H   H14       1.0  0.644783565025215  0.0011863869225948918  0.5482637598325577  1.0000
  H   H15       1.0  0.3490662108033639  0.3488484060776616  0.31011429840251825  1.0000
  H   H16       1.0  0.6509337891127072  0.8488484061805578  0.6898857013847912  1.0000
  H   H17       1.0  0.9304118733222123  0.06748731305330442  0.16586912101394066  1.0000
  H   H18       1.0  0.06958812741438658  0.5674873131562004  0.8341308787784081  1.0000
  H   H19       1.0  0.9623807859394367  0.9767124640162819  0.2841297413430562  1.0000
  H   H20       1.0  0.03761921397663443  0.4767124648546587  0.7158702584442534  1.0000
  H   H21       1.0  0.9932157855035081  0.13803070099493794  0.28390161000943426  1.0000
  H   H22       1.0  0.006784214412562901  0.638030701097834  0.7160983897778753  1.0000
  H   H23       1.0  0.8056339884387568  0.8941185147863517  0.07939423228898662  1.0000
  H   H24       1.0  0.19436601156815608  0.39411851562472855  0.9206057682721865  1.0000
  H   H25       1.0  0.6847630033603913  0.7416122238941821  0.9100347624724419  1.0000
  H   H26       1.0  0.3152369966465215  0.24161222379128613  0.08996523808873118  1.0000
  H   H27       1.0  0.4954740473401765  0.8237691608355036  0.9279049936916114  1.0000
  H   H28       1.0  0.5045259526667363  0.3237691607326075  0.0720950068695617  1.0000
  H   H29       1.0  0.48723495234405595  0.9916241286943371  0.06354445448858538  1.0000
  H   H30       1.0  0.5127650476628569  0.4916241285914411  0.9364555460725879  1.0000
  H   H31       1.0  0.7728350691154129  0.5742571886506674  0.0047335862386356856  1.0000
  H   H32       1.0  0.22716493080065803  0.0742571885477714  0.9952664135486738  1.0000
  H   H33       1.0  0.7639271695176667  0.4189879230073991  0.1441079968302578  1.0000
  H   H34       1.0  0.2360728303984043  0.9189879231102952  0.8558920029570518  1.0000
  H   H35       1.0  0.5360602543131471  0.6573723423216551  0.28351807291567066  1.0000
  H   H36       1.0  0.46393974560292395  0.15737234221875906  0.7164819268716389  1.0000
  H   H37       1.0  0.5483308786724959  0.8152239373906338  0.14680634554936897  1.0000
  H   H38       1.0  0.45166912124357517  0.31522393728773784  0.8531936542379406  1.0000
  H   H39       1.0  0.03290514095223642  0.7846454718692594  0.9343958707266469  1.0000
  H   H40       1.0  0.9670948589638346  0.28464547176636334  0.06560412906066265  1.0000
  H   H41       1.0  0.9704328258527906  0.7485479384916883  0.04908457279570065  1.0000
  H   H42       1.0  0.029567174063280414  0.24854793838879227  0.9509154269916089  1.0000
  H   H43       1.0  0.011045448083601526  0.9051260534826178  0.027465763515338526  1.0000
  H   H44       1.0  0.9889545518324695  0.4051260533797217  0.9725342362719711  1.0000
  H   H45       1.0  0.8978054666400089  0.24107447365560344  0.5557768213973046  1.0000
  H   H46       1.0  0.10219453336690391  0.7410744737584994  0.4442231791638686  1.0000
  H   H47       1.0  0.8725037152932925  0.20251060767399862  0.4213610107983234  1.0000
  H   H48       1.0  0.12749628462277848  0.7025106077768947  0.5786389889889861  1.0000
  H   H49       1.0  0.002999533062103341  0.17004278346631446  0.48932690026643894  1.0000
  H   H50       1.0  0.9970004668539676  0.6700427835692105  0.5106730995208706  1.0000
  H   H51       1.0  0.133817679893538  0.46196038263883166  0.2960220041358414  1.0000
  H   H52       1.0  0.866182320022533  0.9619603827417278  0.7039779956514681  1.0000
  H   H53       1.0  0.09692997742304162  0.5379883699651931  0.4094271143499982  1.0000
  H   H54       1.0  0.9030700224930293  0.03798836986229705  0.5905728854373113  1.0000
  H   H55       1.0  0.007295348298072708  0.6509364398565397  0.2537394178375276  1.0000
  H   H56       1.0  0.9927046516179981  0.15093643975364363  0.746260581949782  1.0000
  H   H57       1.0  0.9497951034714212  0.5072620464765414  0.20156255941050502  1.0000
  H   H58       1.0  0.050204896444649864  0.007262046373645352  0.7984374403768046  1.0000
  H   H59       1.0  0.9034990354397895  0.5720922751535475  0.3150621045531182  1.0000
  H   H60       1.0  0.09650096447628151  0.07209227505065151  0.6849378952341912  1.0000
  H   H61       1.0  0.7960552042357143  0.19140866119075395  0.941545131281026  1.0000
  H   H62       1.0  0.2039447956803567  0.69140866129365  0.05845486850628357  1.0000
  H   H63       1.0  0.2146392470670286  0.6994877720576574  0.24517936940490934  1.0000
  H   H64       1.0  0.7853607536695701  0.19948777289603428  0.7548206303874393  1.0000
  C   C1        1.0  0.3135669149074101  0.8929687791470264  0.18006507440568117  1.0000
  C   C2        1.0  0.6864330850086608  0.3929687790441304  0.8199349253816284  1.0000
  C   C3        1.0  0.2530282952835765  0.8746557308020375  0.2763885301635638  1.0000
  C   C4        1.0  0.7469717047233364  0.37465573069914143  0.7236114703976094  1.0000
  C   C5        1.0  0.19323921124655524  0.0018343742312222516  0.29607101227524935  1.0000
  C   C6        1.0  0.8067607886695157  0.5018343743341183  0.7039289875120602  1.0000
  C   C7        1.0  0.27784092157669604  0.11100965018016201  0.30142468637182745  1.0000
  C   C8        1.0  0.7221590784302168  0.6110096502830581  0.6985753141893457  1.0000
  C   C9        1.0  0.3930316792891215  0.05238893842871677  0.29254850454210746  1.0000
  C   C10       1.0  0.6069683207177912  0.5523889385316127  0.7074514960190657  1.0000
  C   C11       1.0  0.4185860579491995  0.9564796708139802  0.3757830878109169  1.0000
  C   C12       1.0  0.5814139419668716  0.4564796707110843  0.6242169119763926  1.0000
  C   C13       1.0  0.3452063988171628  0.8624814928466639  0.36696274155993874  1.0000
  C   C14       1.0  0.6547936020102777  0.36248149274376784  0.6330372590062735  1.0000
  C   C15       1.0  0.2813369856637972  0.19752666568470467  0.39411288030652253  1.0000
  C   C16       1.0  0.7186630150728014  0.6975266657876007  0.6058871194858261  1.0000
  C   C17       1.0  0.24678821372835133  0.16296737926755434  0.4890022764987332  1.0000
  C   C18       1.0  0.7532117861877196  0.6629673793704504  0.5109977232885763  1.0000
  C   C19       1.0  0.25009132414777097  0.24896106211306546  0.570648387582186  1.0000
  C   C20       1.0  0.7499086758591419  0.7489610622159615  0.4293516129789871  1.0000
  C   C21       1.0  0.2894394263981463  0.37010359105308416  0.5568231878163834  1.0000
  C   C22       1.0  0.7105605735179247  0.8701035911559801  0.4431768119709262  1.0000
  C   C23       1.0  0.3262765928873326  0.40613170743855076  0.4637775628756516  1.0000
  C   C24       1.0  0.6737234071195802  0.9061317075414468  0.5362224376855216  1.0000
  C   C25       1.0  0.3220728949816165  0.31943374069493485  0.3833038434845123  1.0000
  C   C26       1.0  0.6779271050252963  0.8194337407978308  0.6166961570766607  1.0000
  C   C27       1.0  0.10200302402354339  0.026531211468512932  0.20756335217191232  1.0000
  C   C28       1.0  0.8979969768038971  0.526531211571409  0.7924366483942997  1.0000
  C   C29       1.0  0.98898709905818  0.05277761353129276  0.23529742585846244  1.0000
  C   C30       1.0  0.011012900948732815  0.5527776136341888  0.7647025747027109  1.0000
  C   C31       1.0  0.6752811913903127  0.01599877366780792  0.8522485729451206  1.0000
  C   C32       1.0  0.32471880852575824  0.515998773770704  0.14775142684218898  1.0000
  C   C33       1.0  0.7361119138490195  0.026281422120154267  0.9627833051588472  1.0000
  C   C34       1.0  0.26388808606705155  0.5262814222230503  0.03721669462846234  1.0000
  C   C35       1.0  0.7748659671360859  0.8893665033751283  0.9967603965233912  1.0000
  C   C36       1.0  0.22513403277998514  0.38936650327223243  0.0032396032639183266  1.0000
  C   C37       1.0  0.6734343578532264  0.7989320937063278  0.9783070485659768  1.0000
  C   C38       1.0  0.32656564215368644  0.29893209360343165  0.021692951995196285  1.0000
  C   C39       1.0  0.5701436259610628  0.8804853716438729  0.9450960163833356  1.0000
  C   C40       1.0  0.4298563739550082  0.38048537154097695  0.054903983403973865  1.0000
  C   C41       1.0  0.5584422625411708  0.9839232684357971  0.020992570824152578  1.0000
  C   C42       1.0  0.44155773737490017  0.48392326833290117  0.979007428963157  1.0000
  C   C43       1.0  0.647049483962621  0.058760933171874474  0.032063657715146264  1.0000
  C   C44       1.0  0.35295051595345006  0.5587609332747705  0.9679363420721633  1.0000
  C   C45       1.0  0.6630613848240197  0.7078967358996355  0.06604930051359399  1.0000
  C   C46       1.0  0.33693861600342084  0.20789673579673948  0.9339507000526182  1.0000
  C   C47       1.0  0.7224540413550211  0.5947808502322088  0.06667359756158306  1.0000
  C   C48       1.0  0.2775459585610499  0.09478085012931281  0.9333264022257265  1.0000
  C   C49       1.0  0.7169674878345886  0.5059387156456736  0.14469248125456668  1.0000
  C   C50       1.0  0.2830325121723242  0.005938715542777588  0.8553075193066064  1.0000
  C   C51       1.0  0.6504921557625006  0.5297224231240878  0.2226284958507318  1.0000
  C   C52       1.0  0.34950784415357045  0.02972242302119179  0.7773715039365777  1.0000
  C   C53       1.0  0.5892631700568834  0.6404476686458537  0.22334627990356218  1.0000
  C   C54       1.0  0.4107368298591876  0.14044766854295765  0.7766537198837474  1.0000
  C   C55       1.0  0.5963882354766237  0.7290900961899763  0.14513350778426823  1.0000
  C   C56       1.0  0.4036117645302892  0.22909009608708022  0.8548664927769049  1.0000
  C   C57       1.0  0.8659664537822895  0.8464194967035523  0.9328647009230753  1.0000
  C   C58       1.0  0.13403354622462324  0.34641949660065635  0.06713529963809774  1.0000
  C   C59       1.0  0.9771502462816307  0.819247606910299  0.9882026054089008  1.0000
  C   C60       1.0  0.022849753634440296  0.31924760680740294  0.011797394378408923  1.0000
  C   C61       1.0  0.972321868337201  0.3653949854992931  0.4571036999726842  1.0000
  C   C62       1.0  0.027678131578869967  0.8653949856021892  0.5428962998146254  1.0000
  C   C63       1.0  0.9342710848185438  0.23716341990544224  0.48304764857046617  1.0000
  C   C64       1.0  0.06572891509752729  0.7371634200083383  0.5169523512168435  1.0000
  C   C65       1.0  0.06541645115795436  0.4864189771221412  0.33936467209209875  1.0000
  C   C66       1.0  0.9345835487581166  0.9864189762837644  0.6606353276952108  1.0000
  C   C67       1.0  0.9759446060038713  0.558250881976028  0.2735659088878618  1.0000
  C   C68       1.0  0.02405539391219967  0.05825088187313194  0.7264340908994478  1.0000
  O   O1        1.0  0.3047498253478861  0.8263342696739363  0.1028696998994085  1.0000
  O   O2        1.0  0.6952501745681849  0.3263342695710403  0.897130299887901  1.0000
  O   O3        1.0  0.17645909981722638  0.777145434061491  0.265062840840669  1.0000
  O   O4        1.0  0.8235409001896865  0.2771454339585948  0.7349371597205041  1.0000
  O   O5        1.0  0.38554907640453695  0.9901940339874393  0.1900818743655415  1.0000
  O   O6        1.0  0.6144509235115341  0.49019403388454336  0.8099181254217681  1.0000
  O   O7        1.0  0.12503284922622093  0.02729033110059064  0.11792966552902176  1.0000
  O   O8        1.0  0.8749671506898501  0.5272903302622137  0.8820703342582878  1.0000
  O   O9        1.0  0.6970856845896465  0.07539232410350753  0.7765398779411085  1.0000
  O   O10       1.0  0.3029143154172663  0.5753923242064036  0.22346012262006465  1.0000
  O   O11       1.0  0.8252383469491987  0.10907184229634724  0.9679760605864771  1.0000
  O   O12       1.0  0.17476165296687213  0.6090718414579704  0.032023939200832414  1.0000
  O   O13       1.0  0.5902122015198309  0.9352706533906099  0.8445656767534904  1.0000
  O   O14       1.0  0.40978779839624013  0.4352706532877139  0.15543432303381932  1.0000
  O   O15       1.0  0.8434425063936359  0.8348743311783506  0.8387245754497816  1.0000
  O   O16       1.0  0.1565574935224351  0.3348743310754545  0.16127542433752787  1.0000
  O   O17       1.0  0.024112351324781317  0.3650131355663454  0.37093716368980845  1.0000
  O   O18       1.0  0.9758876485912897  0.8650131356692415  0.6290628360975011  1.0000
  O   O19       1.0  0.9592615740756772  0.4605756441067665  0.5081741257185936  1.0000
  O   O20       1.0  0.040738425840393805  0.9605756442096626  0.4918258740687161  1.0000
  Cl  Cl1       1.0  0.34453807935647307  0.7384651250948658  0.45034394554970036  1.0000
  Cl  Cl2       1.0  0.655461920559598  0.23846512499196978  0.5496560542376093  1.0000
  Cl  Cl3       1.0  0.6706840112201339  0.17779297395377203  0.12045807932853402  1.0000
  Cl  Cl4       1.0  0.32931598869593726  0.6777929731153952  0.8795419204587756  1.0000
  Br  Br1       1.0  0.29295821589664056  0.4891307598065724  0.6674085448763912  1.0000
  Br  Br2       1.0  0.7070417840194304  0.9891307599094683  0.3325914549109183  1.0000
  Br  Br3       1.0  0.6435246053411875  0.40796383014505216  0.32953931688707594  1.0000
  Br  Br4       1.0  0.3564753945748836  0.9079638302479481  0.6704606829002336  1.0000
