data_image0
_chemical_formula_structural       H22C26N2O6Cl2Br2
_chemical_formula_sum              "H22 C26 N2 O6 Cl2 Br2"
_cell_length_a       13.798905736344498
_cell_length_b       4.1146529288046345
_cell_length_c       12.167232099570413
_cell_angle_alpha    90.0
_cell_angle_beta     107.9342772082957
_cell_angle_gamma    90.0

_space_group_name_H-M_alt    "P 1"
_space_group_IT_number       1

loop_
  _space_group_symop_operation_xyz
  'x, y, z'

loop_
  _atom_site_type_symbol
  _atom_site_label
  _atom_site_symmetry_multiplicity
  _atom_site_fract_x
  _atom_site_fract_y
  _atom_site_fract_z
  _atom_site_occupancy
  H   H1        1.0  0.0006146485797265145  0.25017813356594676  0.9033042473025061  1.0000
  H   H2        1.0  0.0006146484885037939  0.7498218642942288  0.40330424671469084  1.0000
  H   H3        1.0  0.8593081323916253  0.5927555864860173  0.7775069985536872  1.0000
  H   H4        1.0  0.8593081323004026  0.407244413804497  0.2775069979658721  1.0000
  H   H5        1.0  0.6977938215674637  0.6436665754867001  0.8312607214063686  1.0000
  H   H6        1.0  0.697793821476241  0.3563334248038142  0.33126072081855357  1.0000
  H   H7        1.0  0.6849458931000919  0.3646430345307111  0.007427355825582192  1.0000
  H   H8        1.0  0.6849458929551631  0.6353569657598032  0.5074273555495454  1.0000
  H   H9        1.0  0.058365885606759524  0.86114443704232  0.05903449809193605  1.0000
  H   H10       1.0  0.058365885461830816  0.13885556324819434  0.5590344978158993  1.0000
  H   H11       1.0  0.9701228216563753  0.7154261856188185  0.13103388990607903  1.0000
  H   H12       1.0  0.9701228215114468  0.2845738122413571  0.6310338896300423  1.0000
  H   H13       1.0  0.5395969570408128  0.018897088368177127  0.3031552224485335  1.0000
  H   H14       1.0  0.5395969576200587  0.9811029094919986  0.8031552221705861  1.0000
  H   H15       1.0  0.382081487870873  0.9115124057594793  0.3531399074296973  1.0000
  H   H16       1.0  0.3820814884501189  0.08848759453103497  0.8531399071517499  1.0000
  H   H17       1.0  0.23636070927801883  0.6257594831328851  0.21492309699167964  1.0000
  H   H18       1.0  0.2363607091330901  0.3742405171576292  0.7149230967156428  1.0000
  H   H19       1.0  0.4056178554102577  0.5719434714712819  0.9698709249033676  1.0000
  H   H20       1.0  0.40561785531903505  0.4280565288192324  0.4698709243155525  1.0000
  H   H21       1.0  0.7173035492532593  0.00652864299001863  0.15408088833865535  1.0000
  H   H22       1.0  0.7173035491083306  0.9934713573004957  0.6540808880626187  1.0000
  C   C1        1.0  0.9201829633269151  0.13022094433506973  0.021828989578392303  1.0000
  C   C2        1.0  0.9201829631819862  0.8697790559554446  0.5218289893023556  1.0000
  C   C3        1.0  0.9298193985158474  0.28289510929374134  0.9237032620549745  1.0000
  C   C4        1.0  0.9298193984246248  0.7171048885664343  0.4237032614671593  1.0000
  C   C5        1.0  0.8511223184654959  0.46957790691748996  0.8533014861026048  1.0000
  C   C6        1.0  0.8511223186104244  0.5304220933730244  0.35330148637864156  1.0000
  C   C7        1.0  0.7616544689880079  0.49951009855820266  0.8830402057922918  1.0000
  C   C8        1.0  0.7616544688967852  0.5004899017323117  0.3830402052044766  1.0000
  C   C9        1.0  0.752543545578327  0.3448031157301439  0.9801590201151991  1.0000
  C   C10       1.0  0.7525435457232557  0.6551968821300317  0.48015902039123565  1.0000
  C   C11       1.0  0.0005397862603585183  0.9279403624230411  0.09931319599405464  1.0000
  C   C12       1.0  0.0005397861154298154  0.07205963543713458  0.5993131957180179  1.0000
  C   C13       1.0  0.48203423398418666  0.8021628426772018  0.1326466044526423  1.0000
  C   C14       1.0  0.482034233839258  0.19783715761331241  0.6326466041766057  1.0000
  C   C15       1.0  0.4761795252163065  0.8967932104718237  0.2410573638404196  1.0000
  C   C16       1.0  0.47617952507137784  0.10320678981869069  0.7410573635643829  1.0000
  C   C17       1.0  0.3875483814139296  0.8347766724028078  0.2695542180187718  1.0000
  C   C18       1.0  0.38754838199317554  0.16522332788770652  0.7695542177408244  1.0000
  C   C19       1.0  0.3051182178825639  0.6765792833974844  0.191983758371825  1.0000
  C   C20       1.0  0.30511821773763514  0.3234207168930299  0.6919837580957883  1.0000
  C   C21       1.0  0.31243070552018826  0.5836557254168414  0.0844342215363861  1.0000
  C   C22       1.0  0.31243070561141095  0.4163442724433343  0.5844342221242012  1.0000
  C   C23       1.0  0.39961476243007166  0.6449620893714031  0.05353641672815041  1.0000
  C   C24       1.0  0.399614762285143  0.35503791091911124  0.5535364164521136  1.0000
  C   C25       1.0  0.5747381455558946  0.8594749110534061  0.0969477470666875  1.0000
  C   C26       1.0  0.5747381454109659  0.14052508923710824  0.5969477467906508  1.0000
  N   N1        1.0  0.8305898690952193  0.1633014987232969  0.04819021200176832  1.0000
  N   N2        1.0  0.8305898696744651  0.8366985015672174  0.5481902117238209  1.0000
  O   O1        1.0  0.8225383446368028  0.018115489031453897  0.141550042648902  1.0000
  O   O2        1.0  0.8225383447280253  0.9818845112590605  0.6415500432367172  1.0000
  O   O3        1.0  0.6512582379628037  0.9967289200237494  0.17860102410480708  1.0000
  O   O4        1.0  0.6512582380540263  0.003271080266765085  0.6786010246926222  1.0000
  O   O5        1.0  0.5796701826223715  0.7832433052710139  0.0005262876250002968  1.0000
  O   O6        1.0  0.579670182713594  0.21675669501950035  0.5005262882128154  1.0000
  Cl  Cl1       1.0  0.2103983594515477  0.3873712455410061  0.9855452532487857  1.0000
  Cl  Cl2       1.0  0.21039835936032514  0.6126287547495082  0.4855452526609708  1.0000
  Br  Br1       1.0  0.07710679257713673  0.1593603133352231  0.24410294185438686  1.0000
  Br  Br2       1.0  0.07710679266835936  0.8406396869552912  0.744102942442202  1.0000
