data_image0
_chemical_formula_structural       H38C32N4O14S2Cl2
_chemical_formula_sum              "H38 C32 N4 O14 S2 Cl2"
_cell_length_a       7.855215209700669
_cell_length_b       10.638310929241474
_cell_length_c       10.914181727325461
_cell_angle_alpha    86.51030863194528
_cell_angle_beta     78.81351303730966
_cell_angle_gamma    80.36421461175425

_space_group_name_H-M_alt    "P 1"
_space_group_IT_number       1

loop_
  _space_group_symop_operation_xyz
  'x, y, z'

loop_
  _atom_site_type_symbol
  _atom_site_label
  _atom_site_symmetry_multiplicity
  _atom_site_fract_x
  _atom_site_fract_y
  _atom_site_fract_z
  _atom_site_occupancy
  H   H1        1.0  0.08305071308397598  0.7838166805402259  0.7941172762439881  1.0000
  H   H2        1.0  0.916949286785079  0.21618331953282463  0.20588272398356253  1.0000
  H   H3        1.0  0.8657362368927976  0.37068786980420976  0.9834294496075854  1.0000
  H   H4        1.0  0.13426376343061697  0.6293121293463123  0.016570549682824814  1.0000
  H   H5        1.0  0.6647246828197506  0.46835698946000603  0.02100280359191754  1.0000
  H   H6        1.0  0.3352753170493043  0.5316430106130444  0.9789971966356332  1.0000
  H   H7        1.0  0.789285824397544  0.7712356041175885  0.14319925708117368  1.0000
  H   H8        1.0  0.21071417547151122  0.22876439595546166  0.856800743146377  1.0000
  H   H9        1.0  0.4828148556497178  0.06317905643693002  0.24743145394226354  1.0000
  H   H10       1.0  0.5171851442193374  0.9368209436361205  0.752568546285287  1.0000
  H   H11       1.0  0.8626234147150409  0.07961188376968244  0.82904397640956  1.0000
  H   H12       1.0  0.13737658560837354  0.9203881153808396  0.1709560228808502  1.0000
  H   H13       1.0  0.4617194767088327  0.8777072596727633  0.31271213189983693  1.0000
  H   H14       1.0  0.5382805231602225  0.1222927404002871  0.6872878683277137  1.0000
  H   H15       1.0  0.5885859844442093  0.7254249187104586  0.32214563826753645  1.0000
  H   H16       1.0  0.41141401542484596  0.27457508136259173  0.6778543619600143  1.0000
  H   H17       1.0  0.7319203212318254  0.7020915789083707  0.5341440436533312  1.0000
  H   H18       1.0  0.2680796788779057  0.29790842119551186  0.46585595563984183  1.0000
  H   H19       1.0  0.8578359035482347  0.8759724921807389  0.6576643580364013  1.0000
  H   H20       1.0  0.14216409656149645  0.12402750792314367  0.3423356412567718  1.0000
  H   H21       1.0  0.8125966371781934  0.09851857554624117  0.5173047041765313  1.0000
  H   H22       1.0  0.18740336269086166  0.9014814245268091  0.4826952960510194  1.0000
  H   H23       1.0  0.4539133519309953  0.5855021710068313  0.6636571972180312  1.0000
  H   H24       1.0  0.5460866479380598  0.41449782906621924  0.3363428030095196  1.0000
  H   H25       1.0  0.37693488406392617  0.7493969356857665  0.6292601328174211  1.0000
  H   H26       1.0  0.6230651160458051  0.25060306441811614  0.3707398664757519  1.0000
  H   H27       1.0  0.009851802432892708  0.5552137096221222  0.837748669416724  1.0000
  H   H28       1.0  0.9901481989512159  0.44478629047948254  0.16225132987336133  1.0000
  H   H29       1.0  0.22684842976304215  0.4648311194125665  0.7960020824260859  1.0000
  H   H30       1.0  0.7731515701060131  0.5351688806604838  0.2039979178014646  1.0000
  H   H31       1.0  0.9712809644468214  0.5691663276799261  0.6184638151027283  1.0000
  H   H32       1.0  0.02871903542223371  0.43083367239312437  0.3815361851248223  1.0000
  H   H33       1.0  0.040153140240684726  0.40558960549490086  0.6571828386609558  1.0000
  H   H34       1.0  0.9598468598690464  0.5944103946089817  0.34281716063221723  1.0000
  H   H35       1.0  0.40241588010802326  0.6028242483191759  0.4461696791746549  1.0000
  H   H36       1.0  0.5975841197610317  0.39717575175387454  0.5538303210528958  1.0000
  H   H37       1.0  0.18421771228207914  0.6857893614519485  0.49459224455533124  1.0000
  H   H38       1.0  0.8157822875869761  0.314210638621102  0.5054077556722193  1.0000
  C   C1        1.0  0.6606511400477272  0.1823093254670302  0.9631898931753824  1.0000
  C   C2        1.0  0.3393488598213279  0.8176906746060201  0.03681010705216805  1.0000
  C   C3        1.0  0.5534433271738876  0.17399259636389947  0.0827738734760553  1.0000
  C   C4        1.0  0.44655667269516747  0.8260074037091509  0.9172261267514954  1.0000
  C   C5        1.0  0.916421887360736  0.8489281271834331  0.9386146740697758  1.0000
  C   C6        1.0  0.08357811296267853  0.1510718719670889  0.06138532522063437  1.0000
  C   C7        1.0  0.7917929401950604  0.9595733915409633  0.9901737457719494  1.0000
  C   C8        1.0  0.20820705991467062  0.0404266085629192  0.00982625352122365  1.0000
  C   C9        1.0  0.685396856599375  0.9529081853986096  0.11259091647968426  1.0000
  C   C10       1.0  0.3146031432696802  0.04709181467444081  0.8874090837478663  1.0000
  C   C11       1.0  0.5658612891675496  0.0634429993533059  0.155347496967986  1.0000
  C   C12       1.0  0.43413871070150556  0.9365570007197443  0.8446525032595646  1.0000
  C   C13       1.0  0.7774202099570117  0.07405781526229559  0.919872913955747  1.0000
  C   C14       1.0  0.22257979015271936  0.925942184841587  0.08012708533742614  1.0000
  C   C15       1.0  0.5972144987639254  0.8272986773570584  0.3077820989625934  1.0000
  C   C16       1.0  0.40278550134580565  0.17270132274682434  0.6922179003305796  1.0000
  C   C17       1.0  0.6770037499495306  0.8665127719681867  0.4099129590365943  1.0000
  C   C18       1.0  0.3229962499195246  0.1334872281048637  0.5900870411909563  1.0000
  C   C19       1.0  0.7349732628715914  0.8024225092344405  0.510352080548937  1.0000
  C   C20       1.0  0.26502673699746376  0.19757749083861  0.48964791967861376  1.0000
  C   C21       1.0  0.8003446408331644  0.8926052104897243  0.5743246451639374  1.0000
  C   C22       1.0  0.19965535903589066  0.10739478958332621  0.4256753550636132  1.0000
  C   C23       1.0  0.7784627460161057  0.005474487267585906  0.5083620526484394  1.0000
  C   C24       1.0  0.22153725385294942  0.9945255128054646  0.4916379475791112  1.0000
  C   C25       1.0  0.34176503823788457  0.6532357529941132  0.6401531108383479  1.0000
  C   C26       1.0  0.6582349618718465  0.34676424710976944  0.3598468884548252  1.0000
  C   C27       1.0  0.12718636016775667  0.5383600847377861  0.7639711905690093  1.0000
  C   C28       1.0  0.872813639914982  0.4616399143819039  0.2360288096557784  1.0000
  C   C29       1.0  0.08069441726864827  0.5000732652793337  0.6446990332032416  1.0000
  C   C30       1.0  0.9193055826004067  0.49992673479371674  0.355300967024309  1.0000
  C   C31       1.0  0.2890615426656476  0.6139342885316923  0.5234506886608062  1.0000
  C   C32       1.0  0.7109384572034076  0.386065711541358  0.4765493115667443  1.0000
  N   N1        1.0  0.7555686660882504  0.41912538231101787  0.9526844765482274  1.0000
  N   N2        1.0  0.2444313337808049  0.5808746177620324  0.04731552367932312  1.0000
  N   N3        1.0  0.6982286570741175  0.8447661126233338  0.18341589613168655  1.0000
  N   N4        1.0  0.3017713427949376  0.15523388744971667  0.816584104095864  1.0000
  O   O1        1.0  0.9398822210968468  0.7442172109483712  0.9967728552802224  1.0000
  O   O2        1.0  0.060117779012884134  0.25578278915551145  0.003227144012950628  1.0000
  O   O3        1.0  0.004146072216917008  0.8669732516466755  0.8231301679507701  1.0000
  O   O4        1.0  0.9958539276521383  0.13302674842637496  0.17686983227678044  1.0000
  O   O5        1.0  0.7969709775732366  0.2936011844762612  0.760527498910605  1.0000
  O   O6        1.0  0.20302902229581868  0.7063988155967892  0.23947250131694556  1.0000
  O   O7        1.0  0.49739852876982904  0.3925488611922859  0.8640665858212634  1.0000
  O   O8        1.0  0.502601471099226  0.6074511388807645  0.13593341440628726  1.0000
  O   O9        1.0  0.7023423825752797  0.9920191229440369  0.4078854444616598  1.0000
  O   O10       1.0  0.2976576172937754  0.007980877129013417  0.5921145557658908  1.0000
  O   O11       1.0  0.1972262426754852  0.6570022345145409  0.7448231158563564  1.0000
  O   O12       1.0  0.80277375719357  0.3429977655585095  0.25517688437119423  1.0000
  O   O13       1.0  0.23022288669608926  0.4926556907840999  0.5442510856744076  1.0000
  O   O14       1.0  0.7697771131729658  0.5073443092889505  0.45574891455314315  1.0000
  S   S1        1.0  0.6721038650431931  0.3267967657688439  0.8742911012508868  1.0000
  S   S2        1.0  0.327896134825862  0.6732032343042065  0.12570889897666385  1.0000
  Cl  Cl1       1.0  0.4034908550707328  0.3031443412276592  0.14272045829159788  1.0000
  Cl  Cl2       1.0  0.5965091447983223  0.6968556588453912  0.8572795419359527  1.0000
