data_image0
_chemical_formula_structural       H56C100N8O2F40I12
_chemical_formula_sum              "H56 C100 N8 O2 F40 I12"
_cell_length_a       8.481872485721702
_cell_length_b       15.415181896872987
_cell_length_c       21.89648867379747
_cell_angle_alpha    87.42253078888655
_cell_angle_beta     86.70997672002925
_cell_angle_gamma    75.30210466818971

_space_group_name_H-M_alt    "P 1"
_space_group_IT_number       1

loop_
  _space_group_symop_operation_xyz
  'x, y, z'

loop_
  _atom_site_type_symbol
  _atom_site_label
  _atom_site_symmetry_multiplicity
  _atom_site_fract_x
  _atom_site_fract_y
  _atom_site_fract_z
  _atom_site_occupancy
  H   H1        1.0  0.3576494033508786  0.04772727041781948  0.20162853238376582  1.0000
  H   H2        1.0  0.6423505966913022  0.952272729423585  0.798371467705328  1.0000
  H   H3        1.0  0.14024537328469497  0.06478031046116689  0.20512655182630493  1.0000
  H   H4        1.0  0.8597546268133883  0.9352196894014324  0.7948734478051145  1.0000
  H   H5        1.0  0.15591370983978253  0.06461060358101059  0.3110699790459113  1.0000
  H   H6        1.0  0.8440862902023982  0.9353893962603937  0.6889300210431824  1.0000
  H   H7        1.0  0.3731231999194789  0.038964710808560905  0.3060816307468203  1.0000
  H   H8        1.0  0.6268768001227021  0.9610352890328435  0.6939183693422734  1.0000
  H   H9        1.0  0.4067649252532129  0.8412625156000013  0.6625701302955886  1.0000
  H   H10       1.0  0.5932350745307856  0.15873748493324713  0.337429869335879  1.0000
  H   H11       1.0  0.48869207631383116  0.8679317972319517  0.7301779590388193  1.0000
  H   H12       1.0  0.5113079237283498  0.13206820260945276  0.26982204105027435  1.0000
  H   H13       1.0  0.22599323467142693  0.9487405551441587  0.7643613000615416  1.0000
  H   H14       1.0  0.774006765370754  0.05125944469724579  0.23563870002755224  1.0000
  H   H15       1.0  0.1444228629482723  0.9211147961751105  0.6969606253289445  1.0000
  H   H16       1.0  0.8555771370939086  0.07888520366629384  0.30303937476014925  1.0000
  H   H17       1.0  0.5051140170017181  0.7714784815663813  0.8191450470221976  1.0000
  H   H18       1.0  0.4948859830963651  0.22852151829621808  0.18085495260922183  1.0000
  H   H19       1.0  0.435507690163612  0.6722948563099943  0.8178182837155946  1.0000
  H   H20       1.0  0.5644923099344713  0.32770514355260505  0.18218171591582477  1.0000
  H   H21       1.0  0.1719907453484222  0.7533793989790034  0.8524080891090313  1.0000
  H   H22       1.0  0.8280092543796737  0.24662060153305002  0.1475919109801108  1.0000
  H   H23       1.0  0.24159348506132386  0.8521333573520897  0.8534937224813745  1.0000
  H   H24       1.0  0.758406514980857  0.1478666424893146  0.14650627760771928  1.0000
  H   H25       1.0  0.32450010152203984  0.6355481617683361  0.7276399445276746  1.0000
  H   H26       1.0  0.675499898520141  0.3644518380730683  0.27236005556141923  1.0000
  H   H27       1.0  0.3131093760367107  0.7070228179409036  0.6610164749437446  1.0000
  H   H28       1.0  0.6868906240613727  0.29297718192169586  0.33898352468767473  1.0000
  H   H29       1.0  0.05080737086319864  0.7887142615789549  0.6946594410462973  1.0000
  H   H30       1.0  0.9491926288648972  0.2112857389330987  0.30534055904284474  1.0000
  H   H31       1.0  0.05974147953691252  0.7167235485558919  0.7606236869585392  1.0000
  H   H32       1.0  0.9402585205052684  0.2832764512855125  0.23937631313055455  1.0000
  H   H33       1.0  0.35023942498380856  0.7816964571316328  0.20973417297173944  1.0000
  H   H34       1.0  0.6497605747442874  0.21830354338042074  0.7902658271174026  1.0000
  H   H35       1.0  0.4496232255936376  0.6653110972850514  0.21057731821244252  1.0000
  H   H36       1.0  0.5503767744485433  0.3346889025563528  0.7894226818766511  1.0000
  H   H37       1.0  0.4624645849975485  0.6709163577253028  0.3178539624521261  1.0000
  H   H38       1.0  0.5375354151005348  0.3290836421372965  0.6821460371792932  1.0000
  H   H39       1.0  0.3431603559218878  0.783759299151847  0.3168965717887593  1.0000
  H   H40       1.0  0.656839644120293  0.21624070068955734  0.6831034283003344  1.0000
  H   H41       1.0  0.2953050800398439  0.5555765409401453  0.21284980912521165  1.0000
  H   H42       1.0  0.7046949200023369  0.44442345890125917  0.7871501909638821  1.0000
  H   H43       1.0  0.08018819069447468  0.5889647727185742  0.22428353009464408  1.0000
  H   H44       1.0  0.9198118093477061  0.4110352271228302  0.7757164699944497  1.0000
  H   H45       1.0  0.11319899984602742  0.5739321993390875  0.3310552705871546  1.0000
  H   H46       1.0  0.8868010001961535  0.426067800502317  0.6689447295019392  1.0000
  H   H47       1.0  0.32805207076404824  0.5509174314850471  0.31959498935101954  1.0000
  H   H48       1.0  0.6719479292781326  0.4490825683563573  0.6804050107380741  1.0000
  H   H49       1.0  0.9413609440128755  0.7465503442107829  0.2244853966808157  1.0000
  H   H50       1.0  0.05863905602930534  0.2534496556306216  0.7755146034082782  1.0000
  H   H51       1.0  0.059484399076589936  0.8271848946618685  0.22396012439385227  1.0000
  H   H52       1.0  0.9405156009655907  0.1728151051795359  0.7760398756952414  1.0000
  H   H53       1.0  0.05390655911149965  0.8157215784763798  0.3316120608530271  1.0000
  H   H54       1.0  0.9460934409306813  0.1842784213650246  0.6683879392360667  1.0000
  H   H55       1.0  0.9546517501394692  0.7271388359448986  0.3322147186047904  1.0000
  H   H56       1.0  0.04534824990271159  0.27286116389650594  0.6677852814843033  1.0000
  C   C1        1.0  0.19412116893980436  0.640810302206166  0.9976308934088548  1.0000
  C   C2        1.0  0.8058788311023765  0.3591896976352385  0.002369106680238974  1.0000
  C   C3        1.0  0.34514077903226964  0.6010021519281065  0.9695716377224498  1.0000
  C   C4        1.0  0.654859221009911  0.39899784791329806  0.030428362366644  1.0000
  C   C5        1.0  0.35784740532198495  0.5667727783250252  0.9112370906401905  1.0000
  C   C6        1.0  0.642152594406111  0.43322722218702836  0.08876290944895142  1.0000
  C   C7        1.0  0.21679334342609452  0.5724078949373634  0.8801123179353144  1.0000
  C   C8        1.0  0.7832066566160867  0.42759210490404087  0.11988768215377925  1.0000
  C   C9        1.0  0.06417924507282477  0.6151932997136582  0.9058787412969261  1.0000
  C   C10       1.0  0.935820754969356  0.3848067001277462  0.09412125879216761  1.0000
  C   C11       1.0  0.05283258339480891  0.6510359636867138  0.9644505592753528  1.0000
  C   C12       1.0  0.9471674166473719  0.3489640361546907  0.035549440813740965  1.0000
  C   C13       1.0  0.8931393498748449  0.7037530434471958  0.9897949121493842  1.0000
  C   C14       1.0  0.10686065016733608  0.2962469563942085  0.010205087939709602  1.0000
  C   C15       1.0  0.8073622503984521  0.6710816378442878  0.037958150199656884  1.0000
  C   C16       1.0  0.1926377496996313  0.32891836201831154  0.9620418494317624  1.0000
  C   C17       1.0  0.6616818794314729  0.7230606414700458  0.06315501765637346  1.0000
  C   C18       1.0  0.3383181206107079  0.2769393583713587  0.9368449824327204  1.0000
  C   C19       1.0  0.592560431026633  0.809594722865205  0.040074520651920256  1.0000
  C   C20       1.0  0.4074395690155478  0.19040527697619947  0.9599254794371733  1.0000
  C   C21       1.0  0.6765620144307581  0.8415764387629696  0.9910247395755372  1.0000
  C   C22       1.0  0.3234379856114226  0.15842356107843478  0.008975260513556592  1.0000
  C   C23       1.0  0.8243786031197982  0.7904481275535199  0.9669203753441571  1.0000
  C   C24       1.0  0.17562139697828513  0.20955187230907948  0.03307962428726229  1.0000
  C   C25       1.0  0.436568515378615  0.8648606289252013  0.06636401238079931  1.0000
  C   C26       1.0  0.563431484663566  0.13513937091620315  0.9336359877082945  1.0000
  C   C27       1.0  0.293227911492456  0.8708667378614541  0.03632075565929347  1.0000
  C   C28       1.0  0.7067720882915425  0.12913326267179448  0.9636792439721742  1.0000
  C   C29       1.0  0.1417037881892863  0.9159155255616007  0.06122016165399509  1.0000
  C   C30       1.0  0.8582962118528946  0.08408447427980369  0.9387798384350986  1.0000
  C   C31       1.0  0.13504599975896625  0.957370047277287  0.11675687484455229  1.0000
  C   C32       1.0  0.8649540002832146  0.0426299525641173  0.8832431252445415  1.0000
  C   C33       1.0  0.27452469586358746  0.9587644986339252  0.14731893028759852  1.0000
  C   C34       1.0  0.7254753038645085  0.04123550187812834  0.8526810698015436  1.0000
  C   C35       1.0  0.4248291802662253  0.9110938897089171  0.12093188054610797  1.0000
  C   C36       1.0  0.5751708197759556  0.08890611013248718  0.8790681195429858  1.0000
  C   C37       1.0  0.2576322525897893  0.013334688666691326  0.20341039188249022  1.0000
  C   C38       1.0  0.7423677474523915  0.9866653111747131  0.7965896082066036  1.0000
  C   C39       1.0  0.2672948954330731  0.009160190001976397  0.30982376553819363  1.0000
  C   C40       1.0  0.7327051046650102  0.9908398098606229  0.6901762340932257  1.0000
  C   C41       1.0  0.2751064979798893  0.9531239726588806  0.3679212995949298  1.0000
  C   C42       1.0  0.7248935020622915  0.04687602718252382  0.6320787004941639  1.0000
  C   C43       1.0  0.13040770280688319  0.9508588103858899  0.40092985094293715  1.0000
  C   C44       1.0  0.8695922969212126  0.04914119012616359  0.5990701491462049  1.0000
  C   C45       1.0  0.1267767498235168  0.9072568399092028  0.4577253462224326  1.0000
  C   C46       1.0  0.873223250218664  0.0927431599322017  0.5422746538666612  1.0000
  C   C47       1.0  0.2735969035729085  0.8632056836385081  0.4827050697673555  1.0000
  C   C48       1.0  0.7264030961551873  0.13679431687354549  0.5172949303217865  1.0000
  C   C49       1.0  0.42287668358994995  0.8594726833155377  0.4510446192423045  1.0000
  C   C50       1.0  0.5771233164522308  0.1405273165258667  0.5489553808467893  1.0000
  C   C51       1.0  0.4208102563886026  0.9054873777459154  0.3941610396093791  1.0000
  C   C52       1.0  0.5791897436535781  0.09451262209548907  0.6058389604797146  1.0000
  C   C53       1.0  0.5731984553274416  0.8069802281199631  0.47965090207250205  1.0000
  C   C54       1.0  0.4268015447147391  0.19301977172144127  0.5203490980165917  1.0000
  C   C55       1.0  0.644759679939024  0.8427168932069077  0.5250485509464557  1.0000
  C   C56       1.0  0.3552403201031569  0.1572831066344966  0.4749514491426379  1.0000
  C   C57       1.0  0.7801882177430441  0.7918667107251128  0.554477210283793  1.0000
  C   C58       1.0  0.2198117822991369  0.20813328911629153  0.4455227898053007  1.0000
  C   C59       1.0  0.8471212290882133  0.701898747883665  0.5414573304896169  1.0000
  C   C60       1.0  0.15287877095396749  0.29810125195773945  0.45854266959947687  1.0000
  C   C61       1.0  0.7755682254535591  0.666052168807078  0.49605878009982446  1.0000
  C   C62       1.0  0.22443177458862182  0.33394783103432646  0.5039412199892692  1.0000
  C   C63       1.0  0.6433834526152292  0.7176058119216888  0.4651704697359988  1.0000
  C   C64       1.0  0.3566165471128666  0.28239418859036475  0.5348295303531432  1.0000
  C   C65       1.0  0.9837687222743854  0.6448822809573705  0.5757694454213076  1.0000
  C   C66       1.0  0.016231277509613038  0.35511771957587795  0.42423055421016004  1.0000
  C   C67       1.0  0.9526153897299954  0.6157862829254386  0.6361933398434487  1.0000
  C   C68       1.0  0.04738461036808801  0.38421371693716083  0.36380665978797055  1.0000
  C   C69       1.0  0.07960928255681786  0.55794106462151  0.6663252773656955  1.0000
  C   C70       1.0  0.9203907171712782  0.44205893589054335  0.33367472272344645  1.0000
  C   C71       1.0  0.23613382003639466  0.5320403136005448  0.6391225798415981  1.0000
  C   C72       1.0  0.7638661800057862  0.4679596862408597  0.36087742024749564  1.0000
  C   C73       1.0  0.2663703840399535  0.5631534082477287  0.580062998932948  1.0000
  C   C74       1.0  0.7336296157440448  0.43684659228551964  0.41993700069851964  1.0000
  C   C75       1.0  0.1407043789984286  0.6179645033607644  0.5472996327456636  1.0000
  C   C76       1.0  0.8592956210437523  0.38203549648063995  0.4527003673434301  1.0000
  C   C77       1.0  0.3930743703934372  0.840308347609191  0.7128285739282333  1.0000
  C   C78       1.0  0.6069256296487437  0.15969165223221332  0.28717142616086044  1.0000
  C   C79       1.0  0.21947775758629423  0.8930886632210505  0.7356915659280946  1.0000
  C   C80       1.0  0.7805222424558865  0.10691133662035389  0.26430843416099925  1.0000
  C   C81       1.0  0.4096256458603053  0.7430744367327285  0.8024218716519106  1.0000
  C   C82       1.0  0.5903743541818757  0.2569255631086759  0.19757812843718325  1.0000
  C   C83       1.0  0.23552025857525552  0.7964685292641848  0.8248574315154962  1.0000
  C   C84       1.0  0.7644797414669253  0.2035314705772196  0.17514256857359745  1.0000
  C   C85       1.0  0.29837007282415395  0.7059161507927453  0.7112385940771734  1.0000
  C   C86       1.0  0.7016299272180269  0.2940838490486591  0.2887614060119204  1.0000
  C   C87       1.0  0.12498197532712256  0.7598539685257693  0.7336928701619968  1.0000
  C   C88       1.0  0.8750180247709607  0.2401460313368301  0.26630712946942264  1.0000
  C   C89       1.0  0.34641332286248344  0.7159736372466345  0.23034989583858262  1.0000
  C   C90       1.0  0.6535866769215151  0.2840263632866139  0.7696501037928849  1.0000
  C   C91       1.0  0.35052266536862425  0.7161508195365458  0.3013110683384163  1.0000
  C   C92       1.0  0.6494773347294591  0.28384918032605355  0.698688931293003  1.0000
  C   C93       1.0  0.19447084877531837  0.6032340975119436  0.23665171005463514  1.0000
  C   C94       1.0  0.8055291509527777  0.39676590300010994  0.7633482900345069  1.0000
  C   C95       1.0  0.21269284574180905  0.5972235452303286  0.30689557325857575  1.0000
  C   C96       1.0  0.7873071543562742  0.4027764546322707  0.6931044263728435  1.0000
  C   C97       1.0  0.05322123302249228  0.7597221211690854  0.24060782805730516  1.0000
  C   C98       1.0  0.9467787667056036  0.24027787934296807  0.7593921720318367  1.0000
  C   C99       1.0  0.05800244845289878  0.7509478661299783  0.3117202987105512  1.0000
  C   C100      1.0  0.941997551589282  0.24905213371142623  0.6882797013785426  1.0000
  N   N1        1.0  0.13716566458898063  0.8336232785970552  0.7721360969254145  1.0000
  N   N2        1.0  0.8628343355091025  0.1663767212655442  0.22786390270600476  1.0000
  N   N3        1.0  0.4227275378792308  0.7459140823744035  0.7348666592841379  1.0000
  N   N4        1.0  0.5772724618488652  0.25408591813764997  0.26513334080500406  1.0000
  N   N5        1.0  0.19490055067933487  0.6946007958144818  0.21312085160872607  1.0000
  N   N6        1.0  0.8050994494187484  0.30539920404811755  0.7868791480226932  1.0000
  N   N7        1.0  0.20982068944037113  0.6865112237763756  0.32944761958857716  1.0000
  N   N8        1.0  0.7901793106018098  0.31348877606502884  0.6705523805005166  1.0000
  O   O1        1.0  0.26912013168486343  0.9558387336463278  0.25764175063682976  1.0000
  O   O2        1.0  0.7308798680432326  0.04416126686572573  0.7423582494523123  1.0000
  F   F1        1.0  0.4854089144290301  0.5946191970181083  0.9981455861904359  1.0000
  F   F2        1.0  0.5145910856131507  0.4053808028232962  0.0018544138986577804  1.0000
  F   F3        1.0  0.5051626202782038  0.5279551393038484  0.8846121133322236  1.0000
  F   F4        1.0  0.4948373797639769  0.472044860537556  0.11538788675687021  1.0000
  F   F5        1.0  0.2336825716530495  0.5361463926987426  0.8243000410201694  1.0000
  F   F6        1.0  0.7663174280750463  0.4638536078133108  0.17569995906897282  1.0000
  F   F7        1.0  0.865921210119464  0.5868944039324092  0.060876626003225055  1.0000
  F   F8        1.0  0.134078789922717  0.4131055959089952  0.9391233740858687  1.0000
  F   F9        1.0  0.9023763026123551  0.8264988116496801  0.9205882219151236  1.0000
  F   F10       1.0  0.09762369717164311  0.17350118888356844  0.079411777716344  1.0000
  F   F11       1.0  0.5878992463599048  0.6886486403399549  0.11123705180420462  1.0000
  F   F12       1.0  0.4121007533681911  0.3113513601720986  0.8887629482849373  1.0000
  F   F13       1.0  0.6147805662155001  0.924974707983607  0.9670863154979477  1.0000
  F   F14       1.0  0.38521943351259574  0.07502529252844652  0.03291368459119436  1.0000
  F   F15       1.0  0.29927365267208705  0.8304255937440245  0.9824748256313913  1.0000
  F   F16       1.0  0.7007263473700938  0.16957440609737992  0.01752517445770248  1.0000
  F   F17       1.0  0.0038836805401421524  0.9166370003932482  0.03330671065171077  1.0000
  F   F18       1.0  0.9961163195020387  0.08336299944815617  0.9666932894373829  1.0000
  F   F19       1.0  0.9853455346764616  0.997997049403618  0.1409288287606728  1.0000
  F   F20       1.0  0.014654465365719375  0.0020029504377863994  0.8590711713284209  1.0000
  F   F21       1.0  0.9842797278338372  0.9940043387373315  0.37859601338525806  1.0000
  F   F22       1.0  0.01572027189425873  0.005995661774722077  0.621403986703884  1.0000
  F   F23       1.0  0.983409264750754  0.9085922095007742  0.48800164383047234  1.0000
  F   F24       1.0  0.01659073529142694  0.09140779034063028  0.5119983562586214  1.0000
  F   F25       1.0  0.2693866674387926  0.8237162934260565  0.5388717186382146  1.0000
  F   F26       1.0  0.7306133326033882  0.17628370641534802  0.4611282814508792  1.0000
  F   F27       1.0  0.5807624045977441  0.928682021265045  0.5412824732924748  1.0000
  F   F28       1.0  0.41923759513035175  0.07131797924700865  0.4587175267966673  1.0000
  F   F29       1.0  0.5825164588084694  0.6797681726129395  0.4204506283461847  1.0000
  F   F30       1.0  0.4174835412337115  0.3202318272284648  0.5795493717429091  1.0000
  F   F31       1.0  0.845955703880476  0.8310797777764132  0.5973124286064377  1.0000
  F   F32       1.0  0.1540442961617049  0.16892022206499113  0.402687571482656  1.0000
  F   F33       1.0  0.8342035717360373  0.5790956321834272  0.481866029649575  1.0000
  F   F34       1.0  0.16579642836204594  0.42090436767917233  0.5181339699818444  1.0000
  F   F35       1.0  0.05597122503371303  0.525087277139604  0.7237207627236293  1.0000
  F   F36       1.0  0.9440287750084677  0.47491272270180046  0.27627923736546445  1.0000
  F   F37       1.0  0.35827115008796834  0.4778552213853065  0.6705549990013753  1.0000
  F   F38       1.0  0.641728850010115  0.5221447784772928  0.32944500063004406  1.0000
  F   F39       1.0  0.4199828676405374  0.5372825438680556  0.5554024623455662  1.0000
  F   F40       1.0  0.5800171324016435  0.4627174559733487  0.44459753774352745  1.0000
  I   I1        1.0  0.1882167392489924  0.6752653731572692  0.09159059777931515  1.0000
  I   I2        1.0  0.8117832607931885  0.32473462668413516  0.9084094023097785  1.0000
  I   I3        1.0  0.8573260776728369  0.6217657825259533  0.8562045598805734  1.0000
  I   I4        1.0  0.14267392236934398  0.3782342173154511  0.14379544020852034  1.0000
  I   I5        1.0  0.6444697815722106  0.9128626605981192  0.16027840502568647  1.0000
  I   I6        1.0  0.35553021846997024  0.08713733924328534  0.8397215950634072  1.0000
  I   I7        1.0  0.6472052675645341  0.9061215893784248  0.35014738853952493  1.0000
  I   I8        1.0  0.3527947324776467  0.09387841046297957  0.6498526115495689  1.0000
  I   I9        1.0  0.18868289660477652  0.6524125186612711  0.4536902890460133  1.0000
  I   I10       1.0  0.8113171034374045  0.34758748118013344  0.5463097110430803  1.0000
  I   I11       1.0  0.7190380110818826  0.6628458578859714  0.6834319010269052  1.0000
  I   I12       1.0  0.28096198896029834  0.3371541419554329  0.31656809906218847  1.0000
