data_image0
_chemical_formula_structural       H144C88N4F12Br4I12
_chemical_formula_sum              "H144 C88 N4 F12 Br4 I12"
_cell_length_a       10.989652283797943
_cell_length_b       12.525746781541116
_cell_length_c       20.59808850835381
_cell_angle_alpha    90.0
_cell_angle_beta     94.83821368210418
_cell_angle_gamma    90.0

_space_group_name_H-M_alt    "P 1"
_space_group_IT_number       1

loop_
  _space_group_symop_operation_xyz
  'x, y, z'

loop_
  _atom_site_type_symbol
  _atom_site_label
  _atom_site_symmetry_multiplicity
  _atom_site_fract_x
  _atom_site_fract_y
  _atom_site_fract_z
  _atom_site_occupancy
  H   H1        1.0  0.045323952891985174  0.3128145968729153  0.8860040477476722  1.0000
  H   H2        1.0  0.4546760473430367  0.8128145968113973  0.6139959517743478  1.0000
  H   H3        1.0  0.9546760471543925  0.687185403004049  0.11399595213610673  1.0000
  H   H4        1.0  0.5453239527033409  0.1871854030655668  0.3860040481094311  1.0000
  H   H5        1.0  0.9547888824741794  0.3610373544086287  0.946813255656662  1.0000
  H   H6        1.0  0.545211117595387  0.8610373543471108  0.5531867441690065  1.0000
  H   H7        1.0  0.045211117572198166  0.6389626454683355  0.05318674422711705  1.0000
  H   H8        1.0  0.4547888824509907  0.1389626455298534  0.4468132557147724  1.0000
  H   H9        1.0  0.9671126974973635  0.5478583041541965  0.8996067034374337  1.0000
  H   H10       1.0  0.5328873026450994  0.04785830421571438  0.6003932968754478  1.0000
  H   H11       1.0  0.03288730254901413  0.45214169572276774  0.10039329644634534  1.0000
  H   H12       1.0  0.46711269747417467  0.9521416956612498  0.39960670349554417  1.0000
  H   H13       1.0  0.05856323686579422  0.4989582129514395  0.8404904652625604  1.0000
  H   H14       1.0  0.4414367634421241  0.9989582128899217  0.6595095347466725  1.0000
  H   H15       1.0  0.9414367632534799  0.5010417869255247  0.15950953510843144  1.0000
  H   H16       1.0  0.5585632366042534  0.001041786987042579  0.3404904651371064  1.0000
  H   H17       1.0  0.12721619441566756  0.4862224677074843  0.9873674398045068  1.0000
  H   H18       1.0  0.3727838058922508  0.9862224676459664  0.5126325602047263  1.0000
  H   H19       1.0  0.8727838056307099  0.51377753216948  0.012632560079272161  1.0000
  H   H20       1.0  0.6272161941541268  0.013777532230997827  0.4873674396790527  1.0000
  H   H21       1.0  0.21984152366359228  0.44560536528052586  0.9263737792416256  1.0000
  H   H22       1.0  0.28015847573403935  0.9456053652190081  0.573626220765399  1.0000
  H   H23       1.0  0.7801584754724987  0.5543946353947939  0.07362622063994495  1.0000
  H   H24       1.0  0.7198415243852346  0.05439463545631182  0.42637377960559286  1.0000
  H   H25       1.0  0.2770814377558391  0.6318872182266956  0.963582655998483  1.0000
  H   H26       1.0  0.22291856255207929  0.13188721828821343  0.53641734401075  1.0000
  H   H27       1.0  0.7229185622905385  0.3681127816502686  0.03641734388529597  1.0000
  H   H28       1.0  0.7770814375671947  0.8681127815887508  0.4635826563602418  1.0000
  H   H29       1.0  0.12464554837802004  0.6755563574436948  0.9419907108784703  1.0000
  H   H30       1.0  0.3753544519298983  0.17555635750521276  0.5580092891307625  1.0000
  H   H31       1.0  0.8753544516683576  0.32444364243326934  0.05800928900530856  1.0000
  H   H32       1.0  0.6246455481164792  0.8244436423717515  0.4419907107530163  1.0000
  H   H33       1.0  0.2170500647203093  0.6330674983535289  0.8808303466756771  1.0000
  H   H34       1.0  0.28294993558760906  0.1330674984150468  0.6191696533335561  1.0000
  H   H35       1.0  0.7829499353260683  0.3669325015234353  0.11916965320810201  1.0000
  H   H36       1.0  0.7170500644587686  0.8669325014619175  0.38083034655022285  1.0000
  H   H37       1.0  0.7654025068968594  0.4266925839404856  0.9229229686701723  1.0000
  H   H38       1.0  0.7345974931727071  0.9266925838789678  0.577077031155496  1.0000
  H   H39       1.0  0.23459749314951828  0.5733074159364786  0.07707703121360654  1.0000
  H   H40       1.0  0.26540250687367056  0.07330741599799648  0.422922968728283  1.0000
  H   H41       1.0  0.7977161245228073  0.511493154199923  0.8573525038313456  1.0000
  H   H42       1.0  0.7022838755467593  0.011493154261440987  0.6426474959943227  1.0000
  H   H43       1.0  0.20228387552357047  0.4885068456770411  0.14264749605243324  1.0000
  H   H44       1.0  0.2977161244996183  0.9885068456155233  0.3573525038894562  1.0000
  H   H45       1.0  0.6448218792663526  0.40303838869229247  0.7831123877361269  1.0000
  H   H46       1.0  0.855178120803214  0.9030383886307746  0.7168876120895414  1.0000
  H   H47       1.0  0.3551781207800251  0.5969616119830272  0.21688761214765198  1.0000
  H   H48       1.0  0.14482187924316373  0.09696161204454518  0.28311238779423753  1.0000
  H   H49       1.0  0.6000539786498198  0.3379897289827791  0.8529919934918634  1.0000
  H   H50       1.0  0.8999460214197466  0.8379897289212612  0.6470080063338052  1.0000
  H   H51       1.0  0.3999460213965578  0.6620102716925407  0.14700800639191566  1.0000
  H   H52       1.0  0.10005397862663096  0.16201027095570295  0.35299199354997385  1.0000
  H   H53       1.0  0.46803504686751246  0.4912214542822629  0.8173039631182083  1.0000
  H   H54       1.0  0.03196495344040591  0.991221454220745  0.6826960368910246  1.0000
  H   H55       1.0  0.5319649531788652  0.5087785455947014  0.1826960367655706  1.0000
  H   H56       1.0  0.9680350466059717  0.00877854565621925  0.31730396299275426  1.0000
  H   H57       1.0  0.5931157675829027  0.5796960090795179  0.8295359614147783  1.0000
  H   H58       1.0  0.9068842324866637  0.07969600914103576  0.6704640384108902  1.0000
  H   H59       1.0  0.4068842324634749  0.4203039907974463  0.17046403846900068  1.0000
  H   H60       1.0  0.0931157675597139  0.9203039907359285  0.32953596147288877  1.0000
  H   H61       1.0  0.4636355924708183  0.5845106170267959  0.924331803344127  1.0000
  H   H62       1.0  0.03636440692681343  0.0845106170883138  0.5756681966628977  1.0000
  H   H63       1.0  0.5363644076484558  0.4154893828501683  0.0756681970268649  1.0000
  H   H64       1.0  0.9636355931195641  0.9154893827886504  0.42433180322088115  1.0000
  H   H65       1.0  0.6104442889917088  0.5368719731673052  0.9503865559973547  1.0000
  H   H66       1.0  0.8895557111507543  0.03687197322882301  0.5496134443155268  1.0000
  H   H67       1.0  0.3895557110546688  0.46312802670965914  0.049613443886424344  1.0000
  H   H68       1.0  0.11044428896851996  0.9631280266481411  0.45038655605546507  1.0000
  H   H69       1.0  0.48667134603691  0.4456562380956254  0.9372079518556519  1.0000
  H   H70       1.0  0.013328653360721712  0.9456562380341075  0.5627920481513728  1.0000
  H   H71       1.0  0.513328653099181  0.5543437625796944  0.0627920480259188  1.0000
  H   H72       1.0  0.9866713467585525  0.05434376184285676  0.43720795221961906  1.0000
  H   H73       1.0  0.7548757962869092  0.2260546911400698  0.818409634483732  1.0000
  H   H74       1.0  0.7451242037826572  0.7260546910785518  0.6815903653419364  1.0000
  H   H75       1.0  0.24512420375946833  0.7739453087368945  0.18159036540004692  1.0000
  H   H76       1.0  0.2548757962637205  0.27394530879841233  0.31840963454184257  1.0000
  H   H77       1.0  0.9045415177787792  0.18997914228210352  0.8490497407321256  1.0000
  H   H78       1.0  0.5954584822907871  0.6899791422205857  0.6509502590935429  1.0000
  H   H79       1.0  0.09545848226759836  0.8100208575948606  0.1509502591516534  1.0000
  H   H80       1.0  0.4045415177555905  0.31002085765637855  0.34904974079023604  1.0000
  H   H81       1.0  0.704151977198807  0.2627984795965193  0.9347586834982928  1.0000
  H   H82       1.0  0.7958480219604728  0.7627984795350014  0.5652413163251673  1.0000
  H   H83       1.0  0.29584802193728404  0.7372015210788005  0.0652413163832777  1.0000
  H   H84       1.0  0.2041519771756181  0.2372015211403184  0.4347586835564035  1.0000
  H   H85       1.0  0.8500801472164514  0.21420250359475088  0.9636081722797429  1.0000
  H   H86       1.0  0.6499198519428284  0.714202503533233  0.5363918275437172  1.0000
  H   H87       1.0  0.14991985282992626  0.7857974962822133  0.03639182760403603  1.0000
  H   H88       1.0  0.3500801471932625  0.2857974963437312  0.4636081723378534  1.0000
  H   H89       1.0  0.666861056007165  0.0851810274156545  0.8750839582718377  1.0000
  H   H90       1.0  0.8331389440624013  0.5851810273541366  0.6249160415538308  1.0000
  H   H91       1.0  0.33313894403921246  0.9148189724613096  0.12491604161194138  1.0000
  H   H92       1.0  0.16686105598397635  0.41481897252282757  0.37508395832994806  1.0000
  H   H93       1.0  0.8023786999637247  0.03727110791413915  0.9173979448736974  1.0000
  H   H94       1.0  0.6976213001058418  0.5372711078526212  0.5826020549519711  1.0000
  H   H95       1.0  0.197621300082653  0.9627288919628251  0.08260205501008161  1.0000
  H   H96       1.0  0.30237869994053584  0.4627288920243429  0.4173979449318078  1.0000
  H   H97       1.0  0.620819730651011  0.9878044284141021  0.9768289021954578  1.0000
  H   H98       1.0  0.8791802694185553  0.48780442847562  0.5231710976302107  1.0000
  H   H99       1.0  0.37918026939536653  0.012195571462862131  0.023171097688321228  1.0000
  H   H100      1.0  0.12081973062782231  0.5121955714013442  0.4768289022535683  1.0000
  H   H101      1.0  0.5772598750909772  0.12425540505845258  0.9802470611066616  1.0000
  H   H102      1.0  0.9227401249785893  0.6242554057952903  0.5197529387190069  1.0000
  H   H103      1.0  0.4227401249554004  0.8757445948185116  0.019752938777117438  1.0000
  H   H104      1.0  0.07725987506778838  0.3757445948800295  0.48024706116477195  1.0000
  H   H105      1.0  0.7134006814314917  0.07932328166367049  0.0247579186088982  1.0000
  H   H106      1.0  0.7865993184262415  0.5793232816021526  0.47524208163663967  1.0000
  H   H107      1.0  0.2865993186148858  0.9206767182132937  0.9752420812748809  1.0000
  H   H108      1.0  0.21340068169303256  0.4206767182748116  0.5247579187343523  1.0000
  H   H109      1.0  0.8082128145682619  0.34968691020122095  0.7518605702342525  1.0000
  H   H110      1.0  0.6917871846639144  0.849686910139703  0.7481394300764206  1.0000
  H   H111      1.0  0.1917871846407256  0.6503130896757433  0.24813943013453113  1.0000
  H   H112      1.0  0.30821281447217647  0.15031308973726118  0.25186056980515004  1.0000
  H   H113      1.0  0.9002202304363217  0.4619404200735484  0.7767567488595678  1.0000
  H   H114      1.0  0.5997797697061411  0.9619404200120305  0.7232432514533136  1.0000
  H   H115      1.0  0.09977976968295234  0.5380595798034158  0.22324325151142407  1.0000
  H   H116      1.0  0.4002202303402365  0.038059579864933676  0.2767567484304653  1.0000
  H   H117      1.0  0.9950665656615242  0.2313380958866455  0.764977332468814  1.0000
  H   H118      1.0  0.5049334344080421  0.7313380958251275  0.7350226673568543  1.0000
  H   H119      1.0  0.004933434384853346  0.7686619039903188  0.23502266741496486  1.0000
  H   H120      1.0  0.4950665656383354  0.2686619040518366  0.26497733252692457  1.0000
  H   H121      1.0  0.08646878018528056  0.3455557074152715  0.7840163676951809  1.0000
  H   H122      1.0  0.41353121921235114  0.8455557073537536  0.7159836323118438  1.0000
  H   H123      1.0  0.9135312189508105  0.6544442924616927  0.2159836321863898  1.0000
  H   H124      1.0  0.5864687809069229  0.15444429252321062  0.28401636805914804  1.0000
  H   H125      1.0  0.9220757608865763  0.3109633316027142  0.6581649022522261  1.0000
  H   H126      1.0  0.5779242391829901  0.8109633315411963  0.8418350975734422  1.0000
  H   H127      1.0  0.07792423915980123  0.68903666827425  0.3418350976315528  1.0000
  H   H128      1.0  0.4220757608633876  0.18903666833576788  0.1581649023103367  1.0000
  H   H129      1.0  0.009166179718152137  0.42716613494733985  0.6768521361366426  1.0000
  H   H130      1.0  0.4908338205897663  0.9271661348858219  0.8231478638725905  1.0000
  H   H131      1.0  0.9908338203282255  0.5728338649296244  0.3231478637471364  1.0000
  H   H132      1.0  0.5091661795295078  0.07283386499114224  0.1768521364984015  1.0000
  H   H133      1.0  0.11926242586248256  0.3025774986594207  0.605847601093684  1.0000
  H   H134      1.0  0.3807375735351492  0.8025774985979028  0.8941523989133409  1.0000
  H   H135      1.0  0.8807375732736086  0.6974225012175436  0.39415239878788677  1.0000
  H   H136      1.0  0.619262426584125  0.1974225012790614  0.10584760145765111  1.0000
  H   H137      1.0  0.11528447594918739  0.20080042442711293  0.6655195255888259  1.0000
  H   H138      1.0  0.38471552344844434  0.700800424365595  0.8344804744181988  1.0000
  H   H139      1.0  0.8847155240971902  0.7991995762482068  0.33448047429495315  1.0000
  H   H140      1.0  0.6152844766708297  0.29919957551136916  0.16551952595279304  1.0000
  H   H141      1.0  0.20310123573480976  0.31763263934595454  0.6828682295529412  1.0000
  H   H142      1.0  0.296898763662822  0.8176326400827921  0.8171317704540836  1.0000
  H   H143      1.0  0.7968987643115679  0.6823673605310097  0.3171317703308378  1.0000
  H   H144      1.0  0.7031012363835557  0.18236736059252753  0.1828682294296954  1.0000
  C   C1        1.0  0.21996151771572744  0.17140444777024672  0.9417276366388309  1.0000
  C   C2        1.0  0.28003848168190426  0.6714044477087289  0.5582723633681939  1.0000
  C   C3        1.0  0.7800384814203635  0.8285955521067174  0.05827236324273968  1.0000
  C   C4        1.0  0.7199615183644733  0.3285955521682354  0.4417276365155851  1.0000
  C   C5        1.0  0.13054382054410435  0.09618116676088304  0.9221223178104815  1.0000
  C   C6        1.0  0.369456179763814  0.5961811666993652  0.5778776821987516  1.0000
  C   C7        1.0  0.8694561795022734  0.9038188331160811  0.07787768207329757  1.0000
  C   C8        1.0  0.6305438202825635  0.40381883317759903  0.4221223176850273  1.0000
  C   C9        1.0  0.12970752728630125  0.038793248696044225  0.8640644594258079  1.0000
  C   C10       1.0  0.37029247211133043  0.5387932486345263  0.6359355405812167  1.0000
  C   C11       1.0  0.8702924727600765  0.9612067511809199  0.135935540457971  1.0000
  C   C12       1.0  0.6297075279350471  0.4612067512424379  0.36406445930256215  1.0000
  C   C13       1.0  0.22147683234371768  0.06250878799129506  0.8234726472261255  1.0000
  C   C14       1.0  0.2785231679642007  0.5625087879297772  0.6765273527831075  1.0000
  C   C15       1.0  0.7785231677026601  0.9374912118856691  0.17652735265765343  1.0000
  C   C16       1.0  0.7214768320821769  0.4374912119471871  0.3234726471006715  1.0000
  C   C17       1.0  0.31244780273993694  0.13800440645562206  0.8394372909952699  1.0000
  C   C18       1.0  0.1875521975679815  0.6380044063941042  0.6605627090139631  1.0000
  C   C19       1.0  0.6875521973064407  0.8619955934213421  0.160562708888509  1.0000
  C   C20       1.0  0.8124478024783962  0.36199559348286  0.3394372908698159  1.0000
  C   C21       1.0  0.30988756054414607  0.19039007586472917  0.8992072814890856  1.0000
  C   C22       1.0  0.19011243976377237  0.6903900758032113  0.6007927185201475  1.0000
  C   C23       1.0  0.6901124395022317  0.8096099240122351  0.10079271839469336  1.0000
  C   C24       1.0  0.8098875602826054  0.30960992407375293  0.3992072813636315  1.0000
  C   C25       1.0  0.9798665066488446  0.37494481981074873  0.8970645675841515  1.0000
  C   C26       1.0  0.5201334934207218  0.8749448197492309  0.6029354322415169  1.0000
  C   C27       1.0  0.02013349339753304  0.6250551800662154  0.10293543229962744  1.0000
  C   C28       1.0  0.4798665066256557  0.1250551801277333  0.397064567642262  1.0000
  C   C29       1.0  0.03399742462900127  0.48552400236624865  0.8904876666110929  1.0000
  C   C30       1.0  0.46600257567891706  0.9855240023047307  0.6095123333981401  1.0000
  C   C31       1.0  0.9660025754173763  0.5144759975107156  0.10951233327268609  1.0000
  C   C32       1.0  0.533997424440357  0.01447599757223344  0.39048766697285175  1.0000
  C   C33       1.0  0.14814420873414672  0.5030063707886013  0.9369707953307447  1.0000
  C   C34       1.0  0.35185579157377167  0.0030063708501192324  0.5630292046784885  1.0000
  C   C35       1.0  0.851855791312231  0.49699362908836286  0.06302920455303437  1.0000
  C   C36       1.0  0.6481442085455025  0.996993629026845  0.43697079569250347  1.0000
  C   C37       1.0  0.19466243159265476  0.617047818768779  0.9308868001230427  1.0000
  C   C38       1.0  0.30533756871526363  0.117047818830297  0.5691131998861902  1.0000
  C   C39       1.0  0.8053375684537227  0.38295218110818513  0.06911319976073621  1.0000
  C   C40       1.0  0.6946624313311139  0.8829521810466672  0.43088679999758867  1.0000
  C   C41       1.0  0.7662874055093247  0.43150544907750404  0.8698244873759955  1.0000
  C   C42       1.0  0.7337125946331383  0.9315054490159862  0.6301755129368858  1.0000
  C   C43       1.0  0.2337125945370529  0.5684945507994602  0.1301755125077833  1.0000
  C   C44       1.0  0.2662874054861359  0.06849455086097804  0.3698244874341061  1.0000
  C   C45       1.0  0.6401252612461654  0.4121256416908715  0.8358661335520204  1.0000
  C   C46       1.0  0.8598747388962976  0.9121256416293535  0.6641338667608611  1.0000
  C   C47       1.0  0.3598747388731087  0.5878743581860928  0.16413386681897163  1.0000
  C   C48       1.0  0.14012526115008006  0.08787435824761065  0.33586613312291785  1.0000
  C   C49       1.0  0.5539744948032168  0.505310162371114  0.8474712731661975  1.0000
  C   C50       1.0  0.9460255052663497  0.005310162432631935  0.6525287266594709  1.0000
  C   C51       1.0  0.4460255052431608  0.49468983750585016  0.1525287267175815  1.0000
  C   C52       1.0  0.05397449478002798  0.9946898374443323  0.347471273224308  1.0000
  C   C53       1.0  0.5275280825131416  0.5184804062597346  0.9186693526976225  1.0000
  C   C54       1.0  0.9724719167190345  0.01848040552289686  0.5813306476130508  1.0000
  C   C55       1.0  0.47247191669584576  0.48151959441558523  0.0813306476711612  1.0000
  C   C56       1.0  0.02752808340023956  0.9815195943540673  0.41866935275794126  1.0000
  C   C57       1.0  0.8254233589350329  0.2391391229794172  0.8585921856181937  1.0000
  C   C58       1.0  0.6745766411345335  0.7391391229178993  0.6414078142074745  1.0000
  C   C59       1.0  0.17457664111134477  0.760860876897547  0.14140781426558516  1.0000
  C   C60       1.0  0.32542335891184404  0.2608608769590649  0.35859218567630435  1.0000
  C   C61       1.0  0.7781551488145614  0.20876964588280317  0.9233055331233921  1.0000
  C   C62       1.0  0.7218448512550051  0.7087696458212853  0.5766944667022761  1.0000
  C   C63       1.0  0.22184485123181627  0.7912303539941611  0.07669446676038673  1.0000
  C   C64       1.0  0.27815514879137254  0.29123035405567893  0.42330553318150277  1.0000
  C   C65       1.0  0.72725872528556  0.09468864097970164  0.9201888732280507  1.0000
  C   C66       1.0  0.7727412747840064  0.5946886417165393  0.5798111265976178  1.0000
  C   C67       1.0  0.27274127476081766  0.9053113588972627  0.07981112665572831  1.0000
  C   C68       1.0  0.22725872526237115  0.40531135895878045  0.42018887328616117  1.0000
  C   C69       1.0  0.6557797989119697  0.06996592660578872  0.9787766787204324  1.0000
  C   C70       1.0  0.8442202012304934  0.5699659265442708  0.521223321592449  1.0000
  C   C71       1.0  0.3442202012073044  0.9300340732711755  0.021223321650559505  1.0000
  C   C72       1.0  0.15577979888878088  0.4300340733326934  0.47877667877854296  1.0000
  C   C73       1.0  0.8907711386442331  0.37513863180793666  0.7814019017931308  1.0000
  C   C74       1.0  0.6092288614982299  0.8751386317464188  0.7185980985197505  1.0000
  C   C75       1.0  0.10922886147504104  0.6248613680690276  0.2185980985778611  1.0000
  C   C76       1.0  0.39077113854814777  0.12486136813054545  0.2814019013640284  1.0000
  C   C77       1.0  0.0008235688742870692  0.31820810124261545  0.7576878246514868  1.0000
  C   C78       1.0  0.49917643052334465  0.8182081011810977  0.742312175355538  1.0000
  C   C79       1.0  0.9991764303347004  0.6817918994327044  0.2423121757172968  1.0000
  C   C80       1.0  0.500823569523033  0.18179189949422223  0.25768782452824107  1.0000
  C   C81       1.0  0.006592285715269805  0.34023533800638256  0.6848188664680096  1.0000
  C   C82       1.0  0.4934077136823619  0.8402353379448647  0.815181133539015  1.0000
  C   C83       1.0  0.9934077143311079  0.6597646618705816  0.31518113341576937  1.0000
  C   C84       1.0  0.5065922863640157  0.15976466193209954  0.1848188663447638  1.0000
  C   C85       1.0  0.11716336105357979  0.2876916891941699  0.6582654568042161  1.0000
  C   C86       1.0  0.38283663925433853  0.787691689132652  0.8417345432050168  1.0000
  C   C87       1.0  0.8828366389927976  0.7123083106827943  0.3417345430795628  1.0000
  C   C88       1.0  0.617163360792039  0.21230831074431225  0.15826545667876213  1.0000
  N   N1        1.0  0.8656989092630294  0.3546899164964104  0.8520483231955502  1.0000
  N   N2        1.0  0.634301090806537  0.8546899164348926  0.6479516766301183  1.0000
  N   N3        1.0  0.1343010907833482  0.6453100833805537  0.1479516766882288  1.0000
  N   N4        1.0  0.36569890923984055  0.14531008344207166  0.35204832325366064  1.0000
  F   F1        1.0  0.3993576303287221  0.26222270075268794  0.9170658388185136  1.0000
  F   F2        1.0  0.10064236997919625  0.76222270069117  0.5829341611907194  1.0000
  F   F3        1.0  0.6006423697176554  0.7377772991242763  0.08293416106526534  1.0000
  F   F4        1.0  0.8993576300671815  0.23777729918579413  0.4170658386930596  1.0000
  F   F5        1.0  0.041419558026758015  0.07645983802030577  0.9621862529602908  1.0000
  F   F6        1.0  0.45858044228116035  0.5764598379587879  0.5378137470489422  1.0000
  F   F7        1.0  0.9585804420196196  0.923540162655014  0.03781374692348818  1.0000
  F   F8        1.0  0.5414195578381138  0.4235401619181763  0.4621862533220496  1.0000
  F   F9        1.0  0.223068477193397  0.008972219537889523  0.7660968583933128  1.0000
  F   F10       1.0  0.2769315231145213  0.5089722202747272  0.7339031416159202  1.0000
  F   F11       1.0  0.7769315228529806  0.9910277803390746  0.23390314149046607  1.0000
  F   F12       1.0  0.7230684769318563  0.4910277804005926  0.2660968582678588  1.0000
  Br  Br1       1.0  0.8303819662365698  0.7059284459614538  0.8141148260319919  1.0000
  Br  Br2       1.0  0.6696180339058931  0.2059284460229716  0.6858851742808896  1.0000
  Br  Br3       1.0  0.16961803388270433  0.2940715539155105  0.18588517433900015  1.0000
  Br  Br4       1.0  0.33038196614048454  0.7940715538539925  0.31411482560288934  1.0000
  I   I1        1.0  0.21835078575531763  0.23932257072429627  0.03583917601048454  1.0000
  I   I2        1.0  0.2816492143407677  0.7393225706627784  0.4641608244186179  1.0000
  I   I3        1.0  0.7816492143639564  0.760677429152668  0.9641608243605074  1.0000
  I   I4        1.0  0.7183507857785064  0.26067742921418585  0.535839175952374  1.0000
  I   I5        1.0  0.004366943511611482  0.9126857535430271  0.8439406252835756  1.0000
  I   I6        1.0  0.49563305679630687  0.41268575360454507  0.6560593747256573  1.0000
  I   I7        1.0  0.9956330566076627  0.08731424633393703  0.1560593750874162  1.0000
  I   I8        1.0  0.5043669432500707  0.5873142462724191  0.3439406251581216  1.0000
  I   I9        1.0  0.45001691548335604  0.16760303290609108  0.7757449375473192  1.0000
  I   I10       1.0  0.0499830839142757  0.6676030336429288  0.7242550624597055  1.0000
  I   I11       1.0  0.5499830845630216  0.8323969669708731  0.22425506233645975  1.0000
  I   I12       1.0  0.9500169161321018  0.3323969670323911  0.2757449374240734  1.0000
