data_image0
_chemical_formula_structural       H144C88N4F12Cl4I12
_chemical_formula_sum              "H144 C88 N4 F12 Cl4 I12"
_cell_length_a       11.65328349367677
_cell_length_b       11.949681488895514
_cell_length_c       20.082408128347144
_cell_angle_alpha    90.0
_cell_angle_beta     94.24058021889755
_cell_angle_gamma    90.0

_space_group_name_H-M_alt    "P 1"
_space_group_IT_number       1

loop_
  _space_group_symop_operation_xyz
  'x, y, z'

loop_
  _atom_site_type_symbol
  _atom_site_label
  _atom_site_symmetry_multiplicity
  _atom_site_fract_x
  _atom_site_fract_y
  _atom_site_fract_z
  _atom_site_occupancy
  H   H1        1.0  0.03285431323266797  0.3105977471825528  0.8818257598452619  1.0000
  H   H2        1.0  0.4671456865187365  0.8105977468103456  0.618174240372688  1.0000
  H   H3        1.0  0.96714568694905  0.6894022529098752  0.11817424048335577  1.0000
  H   H4        1.0  0.5328543128046506  0.1894022532820824  0.38182575995429463  1.0000
  H   H5        1.0  0.948224475321323  0.36168995834879625  0.9447795458981781  1.0000
  H   H6        1.0  0.5517755252891928  0.8616899579765891  0.5552204538465971  1.0000
  H   H7        1.0  0.05177552479957715  0.6383100417436317  0.05522045393112701  1.0000
  H   H8        1.0  0.44822447483170746  0.13831004211583897  0.4447795459827081  1.0000
  H   H9        1.0  0.046595190473352976  0.5106407376355933  0.8372783043548678  1.0000
  H   H10       1.0  0.45340481007556466  0.010640738007800453  0.6627216953654045  1.0000
  H   H11       1.0  0.9534048096475473  0.48935926245683475  0.16272169547443727  1.0000
  H   H12       1.0  0.5465951900453355  0.9893592620846275  0.3372783044639006  1.0000
  H   H13       1.0  0.9728321188524203  0.5582331944327464  0.904889503899192  1.0000
  H   H14       1.0  0.5271678809605823  0.058233194804953564  0.5951104963432607  1.0000
  H   H15       1.0  0.027167881268479934  0.4417668056596816  0.09511049593011313  1.0000
  H   H16       1.0  0.4728321192211357  0.9417668052874745  0.40488950398535695  1.0000
  H   H17       1.0  0.12861593697503343  0.47857280257338275  0.9845667077144389  1.0000
  H   H18       1.0  0.3713840627155533  0.9785728022011756  0.5154332920041986  1.0000
  H   H19       1.0  0.871384062287536  0.5214271975190452  0.01543329211323133  1.0000
  H   H20       1.0  0.6286159374053469  0.021427197891252418  0.4845667078251065  1.0000
  H   H21       1.0  0.2020963290370317  0.43069356909492773  0.9169657603671488  1.0000
  H   H22       1.0  0.2979036707143728  0.9306935687227207  0.583034239850801  1.0000
  H   H23       1.0  0.7979036711446863  0.5693064309975002  0.08303423996146878  1.0000
  H   H24       1.0  0.7020963294065274  0.0693064313697074  0.4169657599785041  1.0000
  H   H25       1.0  0.2803997455080308  0.6176140532999382  0.9570822911546523  1.0000
  H   H26       1.0  0.2196002541825559  0.11761405283530305  0.5429177085639851  1.0000
  H   H27       1.0  0.7196002546128696  0.3823859467924898  0.04291770867465288  1.0000
  H   H28       1.0  0.7803997450800134  0.8823859472571249  0.45708229126368505  1.0000
  H   H29       1.0  0.14192678215581386  0.6787781329182272  0.9391329120927231  1.0000
  H   H30       1.0  0.35807321753477284  0.17877813245359211  0.5608670876259144  1.0000
  H   H31       1.0  0.8580732179650863  0.3212218671742007  0.06086708773658216  1.0000
  H   H32       1.0  0.6419267825861275  0.821221867638836  0.43913291220339074  1.0000
  H   H33       1.0  0.2190407169833245  0.6263080741486564  0.8736690107232469  1.0000
  H   H34       1.0  0.2809592836264109  0.12630807452086368  0.6263309894963379  1.0000
  H   H35       1.0  0.7809592831375758  0.3736919251069291  0.12633098910605817  1.0000
  H   H36       1.0  0.7190407165553071  0.8736919255715644  0.3736690108322797  1.0000
  H   H37       1.0  0.7693569527982469  0.43524372468280076  0.9203197506924614  1.0000
  H   H38       1.0  0.7306430470147558  0.9352437243105935  0.5796802495499912  1.0000
  H   H39       1.0  0.23064304738347113  0.5647562754096273  0.07968024963615619  1.0000
  H   H40       1.0  0.26935695316696223  0.06475627578183445  0.4203197507786264  1.0000
  H   H41       1.0  0.8135988919275348  0.5286292890626546  0.8580073906957107  1.0000
  H   H42       1.0  0.6864011086829812  0.028629288598019415  0.6419926090490643  1.0000
  H   H43       1.0  0.18640110819336547  0.4713707110297734  0.14199260913359432  1.0000
  H   H44       1.0  0.3135988914379192  0.9713707114944086  0.35800739078024074  1.0000
  H   H45       1.0  0.6198232760072561  0.35575479597096155  0.8347943168107378  1.0000
  H   H46       1.0  0.8801767238057466  0.8557547964355968  0.6652056834317149  1.0000
  H   H47       1.0  0.3801767241136442  0.6442452041214665  0.16520568301856728  1.0000
  H   H48       1.0  0.11982327637597148  0.14424520365683124  0.3347943168969028  1.0000
  H   H49       1.0  0.6704483273652997  0.44598739514123953  0.7740816624518636  1.0000
  H   H50       1.0  0.829551672447703  0.9459873956058747  0.7259183377905891  1.0000
  H   H51       1.0  0.32955167281641834  0.5540126049511884  0.225918337876754  1.0000
  H   H52       1.0  0.17044832681486638  0.054012604486553234  0.274081662037081  1.0000
  H   H53       1.0  0.6194923375695283  0.6120720227394132  0.8414937394274962  1.0000
  H   H54       1.0  0.8805076622434744  0.11207202311162034  0.6585062608149567  1.0000
  H   H55       1.0  0.3805076626121898  0.3879279773530149  0.15850626090112155  1.0000
  H   H56       1.0  0.11949233707991262  0.8879279769808077  0.34149373951202605  1.0000
  H   H57       1.0  0.501271314903412  0.527304013571863  0.8143426656250239  1.0000
  H   H58       1.0  0.998728684848773  0.02730401394407014  0.6856573341181164  1.0000
  H   H59       1.0  0.4987286852174883  0.4726959856837226  0.1856573342042813  1.0000
  H   H60       1.0  0.00127131527212735  0.972695986148358  0.31434266571118874  1.0000
  H   H61       1.0  0.4834102976986572  0.5841415234779764  0.9323210771841284  1.0000
  H   H62       1.0  0.016589702052747263  0.08414152301334125  0.5676789230338215  1.0000
  H   H63       1.0  0.5165897016247298  0.4158584766144516  0.06767892314285422  1.0000
  H   H64       1.0  0.9834102981289707  0.9158584770790867  0.4323210772947962  1.0000
  H   H65       1.0  0.6201660790974635  0.5298658090497129  0.9570729281940863  1.0000
  H   H66       1.0  0.8798339215130525  0.02986580942192011  0.5429270715506889  1.0000
  H   H67       1.0  0.3798339210234368  0.4701341910427151  0.04292707163521874  1.0000
  H   H68       1.0  0.12016607860784784  0.9701341906705079  0.45707292827861634  1.0000
  H   H69       1.0  0.5066639256537361  0.43753823353857896  0.9293394423434179  1.0000
  H   H70       1.0  0.9933360741592667  0.9375382340032142  0.5706605578990348  1.0000
  H   H71       1.0  0.49333607446716427  0.562461766553849  0.07066055748588722  1.0000
  H   H72       1.0  0.0066639260224513625  0.06246176608921382  0.4293394424295829  1.0000
  H   H73       1.0  0.7595478769630406  0.22922975834506373  0.8110243143989634  1.0000
  H   H74       1.0  0.7404521228499621  0.7292297588096989  0.6889756858434891  1.0000
  H   H75       1.0  0.24045212321867748  0.7707702417473643  0.1889756859296542  1.0000
  H   H76       1.0  0.25954787727093814  0.2707702412827291  0.3110243139858158  1.0000
  H   H77       1.0  0.8964968476340301  0.1873200253981742  0.8464397612110282  1.0000
  H   H78       1.0  0.6035031521181546  0.687320025025967  0.6535602385321121  1.0000
  H   H79       1.0  0.10350315248687006  0.8126799746942538  0.15356023861827706  1.0000
  H   H80       1.0  0.3964968480027456  0.312679975066461  0.346439761297193  1.0000
  H   H81       1.0  0.8327074014023567  0.22294413976436778  0.961969242555425  1.0000
  H   H82       1.0  0.667292598410646  0.7229441402290029  0.5380307576870278  1.0000
  H   H83       1.0  0.16729259786021267  0.7770558603280603  0.03803075727224518  1.0000
  H   H84       1.0  0.33270740177107194  0.277055859863425  0.46196924264158984  1.0000
  H   H85       1.0  0.6970032242248004  0.26782630340181646  0.926237452777874  1.0000
  H   H86       1.0  0.8029967755882024  0.7678263030296093  0.5737625474645788  1.0000
  H   H87       1.0  0.3029967750985867  0.7321736966906116  0.07376254754910866  1.0000
  H   H88       1.0  0.19700322453269795  0.23217369706281873  0.4262374523647264  1.0000
  H   H89       1.0  0.8008027965141866  0.03361715878145382  0.9159822168867843  1.0000
  H   H90       1.0  0.6991972032379983  0.533617159246089  0.5840177828563557  1.0000
  H   H91       1.0  0.1991972036067137  0.9663828413109742  0.08401778294252064  1.0000
  H   H92       1.0  0.30080279688290196  0.46638284084633896  0.4159822169729494  1.0000
  H   H93       1.0  0.6762721455473608  0.07798355804428488  0.8681077088204683  1.0000
  H   H94       1.0  0.8237278542656419  0.57798355850892  0.6318922914219843  1.0000
  H   H95       1.0  0.3237278546343573  0.922016442048143  0.13189229150814938  1.0000
  H   H96       1.0  0.17627214585525833  0.42201644158350793  0.36810770840732066  1.0000
  H   H97       1.0  0.6208452400900907  0.9784962327963049  0.9699067452825842  1.0000
  H   H98       1.0  0.8791547596620942  0.4784962323316696  0.5300932544605558  1.0000
  H   H99       1.0  0.3791547600308096  0.02150376729612319  0.030093254546720696  1.0000
  H   H100      1.0  0.12084524045880606  0.5215037677607584  0.4699067453687493  1.0000
  H   H101      1.0  0.5784401999363372  0.12110104201059793  0.9727179985028714  1.0000
  H   H102      1.0  0.9215597998766654  0.6211010416383907  0.5272820017395812  1.0000
  H   H103      1.0  0.4215598002453808  0.87889895808183  0.027282001825746142  1.0000
  H   H104      1.0  0.07844020030505258  0.3788989576171949  0.47271799858903646  1.0000
  H   H105      1.0  0.7019602519976589  0.07439434606069718  0.022026226925529285  1.0000
  H   H106      1.0  0.798039748553555  0.5743943465253324  0.47797377301444355  1.0000
  H   H107      1.0  0.2980397481840592  0.9256056531948884  0.9779737734030882  1.0000
  H   H108      1.0  0.20196025156734526  0.4256056535670956  0.5220262268148614  1.0000
  H   H109      1.0  0.8143897349492599  0.35331758038265787  0.7451664542292494  1.0000
  H   H110      1.0  0.6856102648029249  0.853317580847293  0.7548335455138907  1.0000
  H   H111      1.0  0.1856102643133093  0.6466824197097701  0.25483354559842075  1.0000
  H   H112      1.0  0.31438973531797537  0.14668241924513492  0.24516645431541434  1.0000
  H   H113      1.0  0.9003877214227635  0.47189882552436174  0.7693500550292262  1.0000
  H   H114      1.0  0.5996122783294214  0.9718988259889969  0.7306499447139141  1.0000
  H   H115      1.0  0.09961227869813688  0.5281011745680662  0.23064994480007897  1.0000
  H   H116      1.0  0.4003877209331478  0.028101174103431048  0.26935005511375615  1.0000
  H   H117      1.0  0.9905918470683981  0.22991103005992616  0.7616061637972599  1.0000
  H   H118      1.0  0.5094081526837869  0.7299110296877189  0.7383938359458804  1.0000
  H   H119      1.0  0.009408152194171255  0.7700889700325018  0.23839383603041026  1.0000
  H   H120      1.0  0.49059184743711337  0.27008897040470903  0.2616061638834248  1.0000
  H   H121      1.0  0.07594863534082902  0.3501494356889955  0.7796149080472105  1.0000
  H   H122      1.0  0.4240513643497577  0.8501494353167882  0.7203850916714268  1.0000
  H   H123      1.0  0.9240513639217403  0.6498505644034325  0.22038509178045956  1.0000
  H   H124      1.0  0.5759486357711426  0.1498505647756397  0.2796149081578783  1.0000
  H   H125      1.0  0.9280400982580974  0.3071667168209402  0.6497386599345972  1.0000
  H   H126      1.0  0.5719599024132362  0.8071667172855754  0.8502613403094906  1.0000
  H   H127      1.0  0.07195990186280278  0.6928332832714877  0.350261339894708  1.0000
  H   H128      1.0  0.42804009776848184  0.19283328280685255  0.1497386600191271  1.0000
  H   H129      1.0  0.006608429465780932  0.4306811461696693  0.6678566121299291  1.0000
  H   H130      1.0  0.4933915702856236  0.9306811466343045  0.8321433880880208  1.0000
  H   H131      1.0  0.9933915707159372  0.5693188530859163  0.33214338819868855  1.0000
  H   H132      1.0  0.5066084298960944  0.06931885345812357  0.16785661224059684  1.0000
  H   H133      1.0  0.11858977178194957  0.29896926652981504  0.5997012905224286  1.0000
  H   H134      1.0  0.38141022790863716  0.7989692669944503  0.9002987091962087  1.0000
  H   H135      1.0  0.8814102283389507  0.7010307335626129  0.40029870930687655  1.0000
  H   H136      1.0  0.6185897722122631  0.20103073309797778  0.09970129063309634  1.0000
  H   H137      1.0  0.11237867274585142  0.19491417090609667  0.6623537069739305  1.0000
  H   H138      1.0  0.38762132786388404  0.6949141713707319  0.8376462932456544  1.0000
  H   H139      1.0  0.887621327375049  0.8050858291863313  0.3376462928553747  1.0000
  H   H140      1.0  0.6123786723178339  0.30508582872169615  0.1623537070829632  1.0000
  H   H141      1.0  0.19159040180595077  0.3193798147295012  0.6795018084661384  1.0000
  H   H142      1.0  0.3084095988037847  0.8193798151941365  0.8204981917534465  1.0000
  H   H143      1.0  0.8084095983757673  0.6806201853629268  0.32049819186247924  1.0000
  H   H144      1.0  0.6915904013171157  0.18062018489829157  0.17950180807585864  1.0000
  C   C1        1.0  0.2126791218276439  0.17896275913188892  0.9518193346849266  1.0000
  C   C2        1.0  0.2873208778629428  0.6789627587596818  0.5481806650337107  1.0000
  C   C3        1.0  0.7873208782932565  0.8210372409605391  0.04818066514437845  1.0000
  C   C4        1.0  0.7126791222579575  0.32103724133274625  0.4518193347955945  1.0000
  C   C5        1.0  0.12717141152297412  0.10533468370430521  0.926489251756324  1.0000
  C   C6        1.0  0.37282858908676125  0.6053346841689403  0.5735107484632608  1.0000
  C   C7        1.0  0.8728285886587439  0.8946653155512805  0.0735107485722936  1.0000
  C   C8        1.0  0.6271714110341389  0.3946653159234876  0.4264892513660442  1.0000
  C   C9        1.0  0.1318264751494855  0.04849839056702471  0.8660907678994441  1.0000
  C   C10       1.0  0.3681735245411012  0.5484983901948175  0.6339092318191932  1.0000
  C   C11       1.0  0.8681735241130838  0.9515016095254033  0.133909231928226  1.0000
  C   C12       1.0  0.6318264755797991  0.45150160989761046  0.36609076801011187  1.0000
  C   C13       1.0  0.22484636475730238  0.07250726982180704  0.8285538615289877  1.0000
  C   C14       1.0  0.27515363579161534  0.5725072694495998  0.6714461381912846  1.0000
  C   C15       1.0  0.7751536353635978  0.927492730270621  0.17144613830031738  1.0000
  C   C16       1.0  0.724846364329285  0.42749273064282817  0.3285538616380205  1.0000
  C   C17       1.0  0.31218911180582365  0.14714309930636632  0.8499398465563126  1.0000
  C   C18       1.0  0.18781088794558082  0.6471430989341591  0.6500601536616373  1.0000
  C   C19       1.0  0.6878108883758944  0.8528569007860617  0.150060153772305  1.0000
  C   C20       1.0  0.8121891121753194  0.3528569011582689  0.3499398461676678  1.0000
  C   C21       1.0  0.30436843516384926  0.1977833586774913  0.9122493613783833  1.0000
  C   C22       1.0  0.19563156544588622  0.6977833583052842  0.5877506388412016  1.0000
  C   C23       1.0  0.695631564957051  0.8022166414149368  0.08775063845092179  1.0000
  C   C24       1.0  0.8043684347358317  0.30221664178714386  0.41224936148741603  1.0000
  C   C25       1.0  0.9733328535116653  0.377372327805601  0.8940091533568084  1.0000
  C   C26       1.0  0.5266671462405197  0.8773723282702361  0.6059908463863317  1.0000
  C   C27       1.0  0.026667146609235023  0.622627672286827  0.10599084647249672  1.0000
  C   C28       1.0  0.47333285302204964  0.12262767182219184  0.39400915344133836  1.0000
  C   C29       1.0  0.02972585639781013  0.491302663209531  0.8892151372261046  1.0000
  C   C30       1.0  0.4702741442119253  0.9913026628373237  0.6107848629934803  1.0000
  C   C31       1.0  0.970274143783908  0.508697336882897  0.11078486310251306  1.0000
  C   C32       1.0  0.5297258559089749  0.008697337255104201  0.3892151368358248  1.0000
  C   C33       1.0  0.14337755161256088  0.4968397990789253  0.9320691857727931  1.0000
  C   C34       1.0  0.3566224481388436  0.9968397987067181  0.5679308144451569  1.0000
  C   C35       1.0  0.8566224485083395  0.5031602010135027  0.06793081405651219  1.0000
  C   C36       1.0  0.6433775520428744  0.003160201385709938  0.4320691858834607  1.0000
  C   C37       1.0  0.1996355709791627  0.6110012695137401  0.9255380071408821  1.0000
  C   C38       1.0  0.30036442963057275  0.11100126904910494  0.5744619930787028  1.0000
  C   C39       1.0  0.8003644292025553  0.38899873057868783  0.07446199318773547  1.0000
  C   C40       1.0  0.6996355705511453  0.8889987310433229  0.42553800724991503  1.0000
  C   C41       1.0  0.7765261802357771  0.4459442065424071  0.8665693263269623  1.0000
  C   C42       1.0  0.7234738195772256  0.9459442061701998  0.6334306739154903  1.0000
  C   C43       1.0  0.22347381994594087  0.5540557935500209  0.1334306740016553  1.0000
  C   C44       1.0  0.2765261797461615  0.05405579392222812  0.3665693264114923  1.0000
  C   C45       1.0  0.6602498809446059  0.43757669565160073  0.8277523146914055  1.0000
  C   C46       1.0  0.839750118807579  0.9375766952793936  0.6722476850517346  1.0000
  C   C47       1.0  0.3397501191762943  0.5624233044408272  0.17224768513789954  1.0000
  C   C48       1.0  0.16024988131332135  0.06242330397619206  0.32775231477757055  1.0000
  C   C49       1.0  0.5791602479708348  0.5300350938964998  0.8489054394415396  1.0000
  C   C50       1.0  0.9208397517813502  0.030035094268707017  0.6510945603016006  1.0000
  C   C51       1.0  0.4208397521500655  0.4699649061959282  0.1510945603877655  1.0000
  C   C52       1.0  0.07916024748121911  0.969964905823721  0.34890543952606956  1.0000
  C   C53       1.0  0.5457686245903052  0.5194186427285009  0.920727306858846  1.0000
  C   C54       1.0  0.9542313751618796  0.019418643100708084  0.5792726928842943  1.0000
  C   C55       1.0  0.45423137553059506  0.4805813573639271  0.07927269297045918  1.0000
  C   C56       1.0  0.045768624959020565  0.9805813569917199  0.4207273069450109  1.0000
  C   C57       1.0  0.8226755911117822  0.24176348488322963  0.8537495701405932  1.0000
  C   C58       1.0  0.6773244094987338  0.7417634853478648  0.6462504296041821  1.0000
  C   C59       1.0  0.17732440900911808  0.7582365152091983  0.14625042968871205  1.0000
  C   C60       1.0  0.32267559062216655  0.25823651474456316  0.353749570225123  1.0000
  C   C61       1.0  0.7704232552148836  0.21268620526511695  0.9185629257622897  1.0000
  C   C62       1.0  0.7295767445373011  0.7126862048929098  0.5814370739808505  1.0000
  C   C63       1.0  0.22957674404768555  0.787313794827311  0.08143707406538048  1.0000
  C   C64       1.0  0.2704232555835991  0.28731379436267585  0.4185629258484546  1.0000
  C   C65       1.0  0.7272926407680568  0.09150340291631189  0.9158542385570407  1.0000
  C   C66       1.0  0.7727073590449459  0.5915034033809471  0.584145761685412  1.0000
  C   C67       1.0  0.27270735935284357  0.9084965971761162  0.08414576127226442  1.0000
  C   C68       1.0  0.22729264113677206  0.4084965967114809  0.4158542386432057  1.0000
  C   C69       1.0  0.6531900628752187  0.06481278942202039  0.9733520521942597  1.0000
  C   C70       1.0  0.8468099368769662  0.5648127890498131  0.5266479475488804  1.0000
  C   C71       1.0  0.34680993724568154  0.9351872106704076  0.02664794763504548  1.0000
  C   C72       1.0  0.1531900632439341  0.4351872110426148  0.4733520522804246  1.0000
  C   C73       1.0  0.8914945380557732  0.3810709778525559  0.7752777115501397  1.0000
  C   C74       1.0  0.6085054625547428  0.8810709783171911  0.7247222881946356  1.0000
  C   C75       1.0  0.10850546206512715  0.6189290214030297  0.22472228827916546  1.0000
  C   C76       1.0  0.39149453756615754  0.11892902177523691  0.2752777116346696  1.0000
  C   C77       1.0  0.9962259893674756  0.32050074586163624  0.7525257138982421  1.0000
  C   C78       1.0  0.5037740103847093  0.820500745489429  0.7474742858448981  1.0000
  C   C79       1.0  0.0037740107534245926  0.6794992542307918  0.24747428593106297  1.0000
  C   C80       1.0  0.4962259888778601  0.17949925460299898  0.25252571398277207  1.0000
  C   C81       1.0  0.005555359835708185  0.34002670730394124  0.6778048828034092  1.0000
  C   C82       1.0  0.49444464071320954  0.8400267069317341  0.8221951169168631  1.0000
  C   C83       1.0  0.9944446402851922  0.6599732927884867  0.32219511702589587  1.0000
  C   C84       1.0  0.5055553594076908  0.15997329316069397  0.177804882912442  1.0000
  C   C85       1.0  0.112870510785347  0.28557767444857785  0.6534196938331536  1.0000
  C   C86       1.0  0.3871294897635707  0.7855776749132131  0.8465803058871187  1.0000
  C   C87       1.0  0.8871294893355534  0.7144223248070078  0.34658030599615147  1.0000
  C   C88       1.0  0.6128705103573295  0.214422325179215  0.15341969394218635  1.0000
  N   N1        1.0  0.8659453616700497  0.3613103750097579  0.8476866015452527  1.0000
  N   N2        1.0  0.634054638142953  0.8613103746375507  0.6523133986972002  1.0000
  N   N3        1.0  0.13405463851166846  0.6386896250826701  0.15231339878336506  1.0000
  N   N4        1.0  0.3659453619779472  0.13868962545487734  0.34768660113210503  1.0000
  F   F1        1.0  0.390100496015434  0.2677849592036084  0.9356753799461184  1.0000
  F   F2        1.0  0.10989950373597038  0.7677849588314012  0.5643246202718315  1.0000
  F   F3        1.0  0.6098995033079531  0.7322150408888196  0.06432462038086423  1.0000
  F   F4        1.0  0.8901004964457477  0.2322150404241844  0.4356753800567862  1.0000
  F   F5        1.0  0.0357252688694487  0.08663524889446131  0.9630381196965434  1.0000
  F   F6        1.0  0.4642747308819558  0.5866352493590965  0.5369618805214065  1.0000
  F   F7        1.0  0.9642747313122694  0.9133647511979667  0.036961880632074236  1.0000
  F   F8        1.0  0.5357252692997623  0.4133647507333315  0.46303811980721116  1.0000
  F   F9        1.0  0.23103701409679017  0.020121013285871552  0.7687919505435798  1.0000
  F   F10       1.0  0.26896298559379656  0.5201210129136643  0.7312080491750576  1.0000
  F   F11       1.0  0.7689629860241102  0.9798789868065565  0.23120804928572525  1.0000
  F   F12       1.0  0.7310370145271038  0.4798789863419212  0.26879195065424766  1.0000
  Cl  Cl1       1.0  0.8503931645840892  0.7171881759328904  0.8023695732271807  1.0000
  Cl  Cl2       1.0  0.6496068360872445  0.2171881754682552  0.6976304270169069  1.0000
  Cl  Cl3       1.0  0.14960683553681098  0.2828118241595376  0.19763042660212435  1.0000
  Cl  Cl4       1.0  0.3503931640944737  0.7828118246241728  0.3023695733117107  1.0000
  I   I1        1.0  0.20267205905473523  0.241370845966087  0.04976635295627884  1.0000
  I   I2        1.0  0.2973279414348804  0.7413708464307222  0.4502336469591912  1.0000
  I   I3        1.0  0.797327941066165  0.758629154126341  0.9502336468730262  1.0000
  I   I4        1.0  0.7026720587468376  0.25862915366170586  0.5497663533694264  1.0000
  I   I5        1.0  0.01208712839839536  0.9213814594331629  0.8386491368370234  1.0000
  I   I6        1.0  0.4879128713530091  0.42138145896852763  0.6613508633809265  1.0000
  I   I7        1.0  0.987912871722505  0.07861854065926513  0.16135086299228174  1.0000
  I   I8        1.0  0.512087128828709  0.5786185411239003  0.33864913694769117  1.0000
  I   I9        1.0  0.44972196122056607  0.1784037693373737  0.7893299816519841  1.0000
  I   I10       1.0  0.050278038470020686  0.6784037689651666  0.7106700180666533  1.0000
  I   I11       1.0  0.5502780389003342  0.8215962307550543  0.210670018177321  1.0000
  I   I12       1.0  0.9497219616508796  0.3215962311272615  0.28932998176265184  1.0000
