data_image0
_chemical_formula_structural       H80C120F12P4Br4I12
_chemical_formula_sum              "H80 C120 F12 P4 Br4 I12"
_cell_length_a       10.305387402281907
_cell_length_b       16.87906373544557
_cell_length_c       17.542563010311653
_cell_angle_alpha    90.0
_cell_angle_beta     105.16626297313745
_cell_angle_gamma    90.0

_space_group_name_H-M_alt    "P 1"
_space_group_IT_number       1

loop_
  _space_group_symop_operation_xyz
  'x, y, z'

loop_
  _atom_site_type_symbol
  _atom_site_label
  _atom_site_symmetry_multiplicity
  _atom_site_fract_x
  _atom_site_fract_y
  _atom_site_fract_z
  _atom_site_occupancy
  H   H1        1.0  0.06049266319441237  0.1182136919010412  0.24352969534617258  1.0000
  H   H2        1.0  0.9395073364452707  0.6182136920359548  0.2564703046859906  1.0000
  H   H3        1.0  0.9395073372944079  0.881786307776336  0.7564703047118304  1.0000
  H   H4        1.0  0.06049266307329943  0.38178630764142246  0.7435296953722726  1.0000
  H   H5        1.0  0.13025850817507637  0.25250824908313496  0.21400290207109293  1.0000
  H   H6        1.0  0.8697414914646068  0.7525082492180485  0.28599709796107026  1.0000
  H   H7        1.0  0.8697414913434938  0.7474917511866922  0.7859970979871703  1.0000
  H   H8        1.0  0.13025850805396338  0.24749175105177865  0.714002902097193  1.0000
  H   H9        1.0  0.2545841497381674  0.2709451982455753  0.11027168149364965  1.0000
  H   H10       1.0  0.7454158499015157  0.7709451977880389  0.38972831853851353  1.0000
  H   H11       1.0  0.7454158497804028  0.7290548020242519  0.8897283185646137  1.0000
  H   H12       1.0  0.25458414961705456  0.22905480188933836  0.6102716815197499  1.0000
  H   H13       1.0  0.3076174645992044  0.15595742046236843  0.03774666789250975  1.0000
  H   H14       1.0  0.6923825350404785  0.655957420597282  0.46225333213965336  1.0000
  H   H15       1.0  0.692382535889616  0.8440425792150088  0.9622533321654934  1.0000
  H   H16       1.0  0.3076174642146349  0.3440425790800953  0.5377466673279971  1.0000
  H   H17       1.0  0.23446649572490197  0.02035470541405184  0.06475688235969762  1.0000
  H   H18       1.0  0.7655335048850314  0.5203547055489655  0.4352431176722054  1.0000
  H   H19       1.0  0.7655335047639185  0.9796452948557753  0.9352431176983055  1.0000
  H   H20       1.0  0.2344664956037891  0.47964529472086176  0.5647568823857978  1.0000
  H   H21       1.0  0.8674839948047584  0.08122048778814038  0.11500257623697448  1.0000
  H   H22       1.0  0.13251600483492476  0.581220487923054  0.38499742379518875  1.0000
  H   H23       1.0  0.1325160047138118  0.9187795118892369  0.8849974238212889  1.0000
  H   H24       1.0  0.8674839946836453  0.4187795117543233  0.6150025762630745  1.0000
  H   H25       1.0  0.6209059004175373  0.06587952788310543  0.07316955604793769  1.0000
  H   H26       1.0  0.37909409922214565  0.565879528018019  0.4268304439842255  1.0000
  H   H27       1.0  0.37909409910103276  0.9341204723867218  0.9268304440103255  1.0000
  H   H28       1.0  0.6209059002964245  0.43412047225180816  0.5731695560740377  1.0000
  H   H29       1.0  0.5168922339928542  0.9323419963722637  0.07346078908633401  1.0000
  H   H30       1.0  0.48310776564682884  0.43234199623735003  0.42653921094582914  1.0000
  H   H31       1.0  0.48310776552571594  0.06765800330511364  0.9265392109719292  1.0000
  H   H32       1.0  0.5168922338717412  0.5676580034400273  0.5734607891124341  1.0000
  H   H33       1.0  0.6626477812095739  0.813416083095178  0.11232135585445202  1.0000
  H   H34       1.0  0.3373522194003594  0.31341608296026446  0.387678644177451  1.0000
  H   H35       1.0  0.3373522192792465  0.18658391658219922  0.8876786442035511  1.0000
  H   H36       1.0  0.662647781088461  0.6865839167171128  0.6123213558805523  1.0000
  H   H37       1.0  0.9090128062681159  0.8279113396944056  0.15449551204620476  1.0000
  H   H38       1.0  0.09098719337156713  0.32791133955949203  0.3455044879859584  1.0000
  H   H39       1.0  0.0909871942207045  0.17208865998297165  0.8455044880117983  1.0000
  H   H40       1.0  0.9090128061470031  0.6720886601178853  0.6544955120723049  1.0000
  H   H41       1.0  0.9511102948930815  0.8873269551407754  0.28569874865145295  1.0000
  H   H42       1.0  0.048889704746601585  0.38732695500586184  0.21430125138071018  1.0000
  H   H43       1.0  0.04888970462548865  0.11267304512905178  0.7143012514068102  1.0000
  H   H44       1.0  0.9511102957422187  0.6126730452639654  0.785698748677293  1.0000
  H   H45       1.0  0.03182701651678067  0.8568836397973467  0.42819891992155035  1.0000
  H   H46       1.0  0.9681729831229025  0.3568836396624332  0.07180108011061284  1.0000
  H   H47       1.0  0.9681729830017896  0.14311636047248041  0.5718010801367129  1.0000
  H   H48       1.0  0.03182701639566774  0.6431163600149441  0.9281989199476504  1.0000
  H   H49       1.0  0.25928388489372717  0.9021127302235432  0.5045555796509372  1.0000
  H   H50       1.0  0.74071611450373  0.4021127300886296  0.9954444204334261  1.0000
  H   H51       1.0  0.740716114624843  0.09788727004628402  0.49544442040732606  1.0000
  H   H52       1.0  0.25928388501484007  0.5978872695887477  0.004555579624837107  1.0000
  H   H53       1.0  0.39949423838883236  0.983310215550997  0.4398872313146445  1.0000
  H   H54       1.0  0.600505762221101  0.48331021600853336  0.06011276871725849  1.0000
  H   H55       1.0  0.6005057620999881  0.01668978412638025  0.5601127687433587  1.0000
  H   H56       1.0  0.3994942382677194  0.5166897842612939  0.9398872313407446  1.0000
  H   H57       1.0  0.3219145450924216  0.014202825687337904  0.29768620923386596  1.0000
  H   H58       1.0  0.6780854555175118  0.5142028252298015  0.2023137907980371  1.0000
  H   H59       1.0  0.678085455396399  0.9857971745824893  0.7023137908241373  1.0000
  H   H60       1.0  0.3219145449713087  0.48579717444757575  0.7976862092599661  1.0000
  H   H61       1.0  0.9952145364054916  0.8830477213436827  0.024392688653449367  1.0000
  H   H62       1.0  0.004785463234191388  0.3830477212087692  0.47560731137871376  1.0000
  H   H63       1.0  0.004785464083328836  0.11695227892614446  0.9756073114045539  1.0000
  H   H64       1.0  0.9952145362843787  0.616952279061058  0.5243926886795495  1.0000
  H   H65       1.0  0.10797831916284924  0.7854520877339424  0.9581307158055269  1.0000
  H   H66       1.0  0.8920216812048581  0.2854520881914788  0.5418692842785762  1.0000
  H   H67       1.0  0.8920216803557209  0.21454791194343484  0.04186928425273629  1.0000
  H   H68       1.0  0.10797831928396216  0.7145479120783484  0.4581307157794269  1.0000
  H   H69       1.0  0.33978707567940575  0.7383869872964253  0.02470413985305103  1.0000
  H   H70       1.0  0.6602129239602773  0.2383869871615117  0.47529586017911213  1.0000
  H   H71       1.0  0.6602129238391644  0.26161301297340195  0.9752958602052122  1.0000
  H   H72       1.0  0.33978707529483626  0.7616130131083156  0.5247041392885385  1.0000
  H   H73       1.0  0.4550569526060858  0.7870539295436408  0.15839209413799568  1.0000
  H   H74       1.0  0.5449430480038475  0.2870539300011772  0.3416079058939073  1.0000
  H   H75       1.0  0.5449430478827345  0.21294607013373645  0.8416079059200074  1.0000
  H   H76       1.0  0.4550569522215162  0.7129460702686501  0.658392093573483  1.0000
  H   H77       1.0  0.3447841919929362  0.8847127082434587  0.22590256972543943  1.0000
  H   H78       1.0  0.6552158083535405  0.3847127081085451  0.2740974297158509  1.0000
  H   H79       1.0  0.6552158082324275  0.11528729202636852  0.774097429741951  1.0000
  H   H80       1.0  0.3447841918718233  0.6152872915688322  0.7259025697515396  1.0000
  C   C1        1.0  0.07831792108819345  0.6362683682180253  0.14841711238992053  1.0000
  C   C2        1.0  0.9216820795217399  0.13626836808311174  0.35158288764198253  1.0000
  C   C3        1.0  0.9216820791371704  0.36373163205180187  0.8515828870774699  1.0000
  C   C4        1.0  0.07831792096708051  0.8637316321867154  0.6484171124160206  1.0000
  C   C5        1.0  0.15276258968247433  0.680145195843527  0.21227127158800452  1.0000
  C   C6        1.0  0.8472374099572088  0.18014519570861334  0.28772872844415864  1.0000
  C   C7        1.0  0.847237410806346  0.31985480442630027  0.7877287284699986  1.0000
  C   C8        1.0  0.15276258929790484  0.819854804561214  0.712271271023492  1.0000
  C   C9        1.0  0.28322456240179156  0.6601946805022736  0.254349368715803  1.0000
  C   C10       1.0  0.7167754372378915  0.16019468036735998  0.24565063131636017  1.0000
  C   C11       1.0  0.7167754371167785  0.3398053197675536  0.7456506313424602  1.0000
  C   C12       1.0  0.28322456228067866  0.8398053193100172  0.7543493687419032  1.0000
  C   C13       1.0  0.3394027761163586  0.592285887220515  0.23043276234624396  1.0000
  C   C14       1.0  0.6605972235233244  0.09228588708560144  0.26956723768591917  1.0000
  C   C15       1.0  0.6605972234022114  0.40771411304931215  0.7695672377120192  1.0000
  C   C16       1.0  0.33940277599524565  0.9077141131842257  0.7304327623723441  1.0000
  C   C17       1.0  0.26993419969250904  0.5447919152464329  0.1679900280727441  1.0000
  C   C18       1.0  0.730065799947174  0.0447919151115192  0.33200997195941906  1.0000
  C   C19       1.0  0.7300657998260611  0.45520808502339444  0.8320099719855192  1.0000
  C   C20       1.0  0.2699342005416464  0.955208085158308  0.6679900280985841  1.0000
  C   C21       1.0  0.14007157326872516  0.5686754419821862  0.12849257502217065  1.0000
  C   C22       1.0  0.859928426370958  0.06867544243972253  0.3715074250099925  1.0000
  C   C23       1.0  0.8599284272200952  0.43132455769519107  0.8715074250358325  1.0000
  C   C24       1.0  0.14007157314761223  0.9313245578301047  0.6284925750482708  1.0000
  C   C25       1.0  0.14033735735941755  0.06103164406190958  0.15487683171085495  1.0000
  C   C26       1.0  0.8596626422802656  0.5610316441968232  0.34512316832130824  1.0000
  C   C27       1.0  0.8596626421591526  0.9389683556154678  0.8451231683474083  1.0000
  C   C28       1.0  0.14033735723830457  0.4389683554805541  0.654876831736955  1.0000
  C   C29       1.0  0.11182753135852298  0.12649116108948916  0.19717388164557284  1.0000
  C   C30       1.0  0.8881724692514104  0.6264911612244027  0.3028261183863301  1.0000
  C   C31       1.0  0.8881724691302973  0.8735088391803381  0.8028261184124302  1.0000
  C   C32       1.0  0.11182753123741013  0.3735088390454245  0.697173881671673  1.0000
  C   C33       1.0  0.1521277495780592  0.2019871992568195  0.1808098444188268  1.0000
  C   C34       1.0  0.847872251031874  0.701987199391733  0.31919015561307623  1.0000
  C   C35       1.0  0.8478722509107612  0.7980128004205578  0.8191901556391763  1.0000
  C   C36       1.0  0.15212774945694627  0.2980128002856442  0.6808098444449269  1.0000
  C   C37       1.0  0.2215801909704102  0.2122011686275234  0.12303004226121896  1.0000
  C   C38       1.0  0.7784198086692727  0.712201168762437  0.3769699577709442  1.0000
  C   C39       1.0  0.7784198085481597  0.7877988316423038  0.8769699577970443  1.0000
  C   C40       1.0  0.22158019181954758  0.2877988315073902  0.6230300422870588  1.0000
  C   C41       1.0  0.25155470301245125  0.1469511916582927  0.08168502508507797  1.0000
  C   C42       1.0  0.7484452966272318  0.6469511912007564  0.4183149749470852  1.0000
  C   C43       1.0  0.7484452965061189  0.8530488086115345  0.9183149749731854  1.0000
  C   C44       1.0  0.25155470289133836  0.3530488084766209  0.5816850251111781  1.0000
  C   C45       1.0  0.21092675024270127  0.07117701128630081  0.09706396953179486  1.0000
  C   C46       1.0  0.7890732493969818  0.5711770114212144  0.40293603050036836  1.0000
  C   C47       1.0  0.7890732492758687  0.9288229889835263  0.9029360305264684  1.0000
  C   C48       1.0  0.21092675109183864  0.4288229888486128  0.5970639695576349  1.0000
  C   C49       1.0  0.9050454155512521  0.9559963836213358  0.1395161564571797  1.0000
  C   C50       1.0  0.09495458408843084  0.45599638407887216  0.3604838435749835  1.0000
  C   C51       1.0  0.09495458396731798  0.04400361605604147  0.8604838436010837  1.0000
  C   C52       1.0  0.9050454154301393  0.544003616190955  0.6395161564832799  1.0000
  C   C53       1.0  0.8233648837241022  0.022614253135286463  0.11514737904488247  1.0000
  C   C54       1.0  0.17663511688583114  0.5226142532702001  0.38485262098702055  1.0000
  C   C55       1.0  0.17663511676471827  0.9773857471345408  0.8848526210131207  1.0000
  C   C56       1.0  0.8233648836029892  0.47738574699962716  0.6151473790709826  1.0000
  C   C57       1.0  0.6838927675425875  0.013687651970578996  0.09097260867178149  1.0000
  C   C58       1.0  0.31610723209709546  0.5136876521054926  0.4090273913603817  1.0000
  C   C59       1.0  0.31610723197598256  0.9863123477067982  0.9090273913864818  1.0000
  C   C60       1.0  0.683892768391725  0.4863123475718847  0.5909726086976215  1.0000
  C   C61       1.0  0.6259299245673958  0.9389675741740201  0.0915220710711983  1.0000
  C   C62       1.0  0.3740700750722871  0.43896757403910647  0.40847792896096485  1.0000
  C   C63       1.0  0.37407007495117417  0.06103242609580714  0.9084779289870649  1.0000
  C   C64       1.0  0.625929924446283  0.5610324262307207  0.5915220710972984  1.0000
  C   C65       1.0  0.7072255064485339  0.8723202993232445  0.11488676994336146  1.0000
  C   C66       1.0  0.2927744941613995  0.37232029918833087  0.3851132300885416  1.0000
  C   C67       1.0  0.29277449404028666  0.1276797003541328  0.8851132301146417  1.0000
  C   C68       1.0  0.7072255063274209  0.6276797004890464  0.6148867699694616  1.0000
  C   C69       1.0  0.8465156487573495  0.8805592432705894  0.1386348558389877  1.0000
  C   C70       1.0  0.15348435088233361  0.38055924372812583  0.36136514419317545  1.0000
  C   C71       1.0  0.15348435076122066  0.1194407564067878  0.8613651442192755  1.0000
  C   C72       1.0  0.8465156486362365  0.6194407565417014  0.6386348558650878  1.0000
  C   C73       1.0  0.13271854070348343  0.9504808822014021  0.28151622814205995  1.0000
  C   C74       1.0  0.8672814589361996  0.45048088265893854  0.2184837718901032  1.0000
  C   C75       1.0  0.8672814588150866  0.04951911747597508  0.7184837719162033  1.0000
  C   C76       1.0  0.13271854058237056  0.5495191176108887  0.7815162281681601  1.0000
  C   C77       1.0  0.050660777840186806  0.906836834074905  0.31872087457008147  1.0000
  C   C78       1.0  0.9493392217994963  0.40683683393999137  0.18127912546208166  1.0000
  C   C79       1.0  0.9493392216783834  0.09316316619492221  0.6812791254881819  1.0000
  C   C80       1.0  0.05066077771907388  0.5931631663298358  0.8187208745961816  1.0000
  C   C81       1.0  0.09631011664317811  0.8895819641031546  0.3989277897916851  1.0000
  C   C82       1.0  0.903689882996505  0.389581964560691  0.1010722102404781  1.0000
  C   C83       1.0  0.903689882875392  0.11041803557422264  0.6010722102665782  1.0000
  C   C84       1.0  0.0963101165220652  0.6104180357091362  0.8989277898177852  1.0000
  C   C85       1.0  0.22258580602942002  0.9159743124574362  0.44196318338602253  1.0000
  C   C86       1.0  0.777414193610263  0.4159743129149725  0.058036816646140625  1.0000
  C   C87       1.0  0.7774141944594004  0.0840256872199411  0.5580368166719806  1.0000
  C   C88       1.0  0.22258580590830715  0.5840256873548547  0.9419631834121227  1.0000
  C   C89       1.0  0.302440828552074  0.9613451015013692  0.4056634242092253  1.0000
  C   C90       1.0  0.6975591720578593  0.4613451013664555  0.09433657582267771  1.0000
  C   C91       1.0  0.6975591719367464  0.03865489876845806  0.5943365758487779  1.0000
  C   C92       1.0  0.3024408284309611  0.5386548983109217  0.9056634242353254  1.0000
  C   C93       1.0  0.25849884559652264  0.9787296238065843  0.3254466463229753  1.0000
  C   C94       1.0  0.7415011540431604  0.4787296236716706  0.17455335370918784  1.0000
  C   C95       1.0  0.7415011539220475  0.021270376463243004  0.674553353735288  1.0000
  C   C96       1.0  0.25849884547540974  0.5212703765981566  0.8254466463490754  1.0000
  C   C97       1.0  0.16315599179060752  0.8911603899221207  0.1290226412495418  1.0000
  C   C98       1.0  0.8368440075856189  0.391160389787207  0.37097735819200867  1.0000
  C   C99       1.0  0.8368440074645062  0.10883961034770656  0.8709773582181088  1.0000
  C   C100      1.0  0.16315599166949463  0.6088396098901703  0.629022641275642  1.0000
  C   C101      1.0  0.09640445642290608  0.8629606747329158  0.053670187462403394  1.0000
  C   C102      1.0  0.9035955432167768  0.36296067459800224  0.44632981256975973  1.0000
  C   C103      1.0  0.903595543095664  0.13703932553691134  0.9463298125958598  1.0000
  C   C104      1.0  0.09640445630179319  0.637039325671825  0.5536701874885035  1.0000
  C   C105      1.0  0.1599044476272394  0.8078252575921123  0.016419252235156345  1.0000
  C   C106      1.0  0.8400955520124437  0.3078252574571988  0.4835807477970068  1.0000
  C   C107      1.0  0.8400955528615811  0.1921747420852649  0.9835807478228468  1.0000
  C   C108      1.0  0.15990444750612645  0.6921747422201785  0.5164192522612564  1.0000
  C   C109      1.0  0.28906430946184297  0.781005296064901  0.053756120316890796  1.0000
  C   C110      1.0  0.7109356901778401  0.2810052965224373  0.44624387971527235  1.0000
  C   C111      1.0  0.7109356900567272  0.21899470361247633  0.9462438797413726  1.0000
  C   C112      1.0  0.28906431031098034  0.7189947037473899  0.5537561203427308  1.0000
  C   C113      1.0  0.35514722210568345  0.8091085278219956  0.1288295645433833  1.0000
  C   C114      1.0  0.6448527785042499  0.3091085276870821  0.37117043548851975  1.0000
  C   C115      1.0  0.6448527783831369  0.1908914718553816  0.8711704355146198  1.0000
  C   C116      1.0  0.3551472219845705  0.6908914719902952  0.6288295645694834  1.0000
  C   C117      1.0  0.29305118087998416  0.8642298849412411  0.16682050353773367  1.0000
  C   C118      1.0  0.706948818759699  0.36422988480632756  0.3331794964944295  1.0000
  C   C119      1.0  0.706948818638586  0.1357701153285861  0.8331794965205297  1.0000
  C   C120      1.0  0.29305118075887115  0.6357701154634997  0.6668205035638337  1.0000
  F   F1        1.0  0.09475097755358856  0.7455627389790054  0.23520265728605977  1.0000
  F   F2        1.0  0.9052490220860945  0.24556273884409174  0.2647973427461034  1.0000
  F   F3        1.0  0.9052490219649815  0.25443726129082184  0.7647973427722035  1.0000
  F   F4        1.0  0.09475097840272596  0.7544372614257355  0.7352026573118997  1.0000
  F   F5        1.0  0.46716396500465995  0.571669738395314  0.26937232793862975  1.0000
  F   F6        1.0  0.532836034635023  0.07166973826040039  0.23062767209353338  1.0000
  F   F7        1.0  0.5328360345139102  0.4283302618745132  0.7306276721196335  1.0000
  F   F8        1.0  0.46716396488354706  0.9283302620094268  0.7693723279647299  1.0000
  F   F9        1.0  0.07095052476624102  0.5245801520025046  0.0670055245954486  1.0000
  F   F10       1.0  0.9290494758436922  0.024580151867591004  0.43299447543645436  1.0000
  F   F11       1.0  0.9290494757225792  0.47541984767487266  0.9329944754625545  1.0000
  F   F12       1.0  0.07095052464512808  0.9754198478097863  0.5670055246215486  1.0000
  P   P1        1.0  0.08480764302665227  0.9648114424618061  0.1763968943758649  1.0000
  P   P2        1.0  0.9151923575832811  0.4648114423268924  0.3236031056560381  1.0000
  P   P3        1.0  0.9151923574621681  0.03518855780802116  0.8236031056821382  1.0000
  P   P4        1.0  0.08480764290553931  0.5351885573504849  0.6763968944019649  1.0000
  Br  Br1       1.0  0.43030668407304545  0.31855873431584386  0.0021439066185775235  1.0000
  Br  Br2       1.0  0.5696933155666376  0.8185587338583075  0.4978560934135856  1.0000
  Br  Br3       1.0  0.5696933154455246  0.6814412659539834  0.9978560934396856  1.0000
  Br  Br4       1.0  0.43030668395193256  0.18144126581906975  0.5021439066446777  1.0000
  I   I1        1.0  0.8787410878979485  0.6643873153017613  0.08369527414594759  1.0000
  I   I2        1.0  0.12125891174173455  0.1643873157592976  0.4163047258862156  1.0000
  I   I3        1.0  0.1212589116206216  0.335612684375616  0.9163047259123156  1.0000
  I   I4        1.0  0.8787410887470859  0.8356126845105296  0.5836952741717875  1.0000
  I   I5        1.0  0.3930933496504598  0.7294430356432908  0.35103821685085185  1.0000
  I   I6        1.0  0.6069066499892233  0.22944303550837722  0.1489617831813113  1.0000
  I   I7        1.0  0.6069066498681103  0.2705569646265364  0.6489617832074114  1.0000
  I   I8        1.0  0.3930933495293469  0.77055696476145  0.8510382168769519  1.0000
  I   I9        1.0  0.3537504278698907  0.4460899673118769  0.1242579696993065  1.0000
  I   I10       1.0  0.6462495717697924  0.9460899674467904  0.37574203033285664  1.0000
  I   I11       1.0  0.6462495716486794  0.5539100329579504  0.8757420303589567  1.0000
  I   I12       1.0  0.3537504277487778  0.05391003282303675  0.6242579697254067  1.0000
