data_image0
_chemical_formula_structural       H80C120O4F12P4Cl4I12
_chemical_formula_sum              "H80 C120 O4 F12 P4 Cl4 I12"
_cell_length_a       10.216178526985559
_cell_length_b       16.945447918574825
_cell_length_c       17.323467844980623
_cell_angle_alpha    90.0
_cell_angle_beta     106.08013842049832
_cell_angle_gamma    90.0

_space_group_name_H-M_alt    "P 1"
_space_group_IT_number       1

loop_
  _space_group_symop_operation_xyz
  'x, y, z'

loop_
  _atom_site_type_symbol
  _atom_site_label
  _atom_site_symmetry_multiplicity
  _atom_site_fract_x
  _atom_site_fract_y
  _atom_site_fract_z
  _atom_site_occupancy
  H   H1        1.0  0.06400947699057521  0.11257025244573365  0.2498453358943661  1.0000
  H   H2        1.0  0.9359905235745533  0.6125702524877855  0.2501546641709555  1.0000
  H   H3        1.0  0.9359905235066124  0.8874297476383701  0.7501546641499772  1.0000
  H   H4        1.0  0.06400947692263435  0.3874297475963182  0.7498453358733879  1.0000
  H   H5        1.0  0.13073534092988465  0.24757414381483264  0.22146660556806796  1.0000
  H   H6        1.0  0.8692646586553865  0.7475741438568845  0.27853339449507314  1.0000
  H   H7        1.0  0.8692646585874458  0.752425855679142  0.7785333944740949  1.0000
  H   H8        1.0  0.13073534086194377  0.2524258562272192  0.7214666055470897  1.0000
  H   H9        1.0  0.24695889620777942  0.2694895816235272  0.11444315925441353  1.0000
  H   H10       1.0  0.7530411043573492  0.769489581665579  0.3855568408109081  1.0000
  H   H11       1.0  0.7530411042894083  0.7305104184605764  0.8855568407899299  1.0000
  H   H12       1.0  0.24695889613983854  0.23051041841852463  0.6144431592334353  1.0000
  H   H13       1.0  0.29896011958748825  0.15569083052139743  0.03750059093738728  1.0000
  H   H14       1.0  0.701039879997783  0.6556908305634492  0.4624994091257539  1.0000
  H   H15       1.0  0.7010398799298421  0.8443091689725772  0.9624994091047755  1.0000
  H   H16       1.0  0.2989601195195474  0.34430916952065443  0.537500590916409  1.0000
  H   H17       1.0  0.23069752808186056  0.02001171769725165  0.06455713041440514  1.0000
  H   H18       1.0  0.7693024715034107  0.5200117171491745  0.43544286964873596  1.0000
  H   H19       1.0  0.7693024714354698  0.9799882823868521  0.9354428696277578  1.0000
  H   H20       1.0  0.2306975289937769  0.47998828234480023  0.5645571303956074  1.0000
  H   H21       1.0  0.8627512927273082  0.0758603948492212  0.11480194981819039  1.0000
  H   H22       1.0  0.1372487078378204  0.575860394891273  0.38519805024713116  1.0000
  H   H23       1.0  0.13724870776987963  0.9241396052348825  0.885198050226153  1.0000
  H   H24       1.0  0.8627512926593673  0.42413960519283067  0.6148019497972121  1.0000
  H   H25       1.0  0.6132561971100866  0.05894880647592892  0.07179967454192542  1.0000
  H   H26       1.0  0.38674380345504183  0.5589488065179807  0.42820032552339615  1.0000
  H   H27       1.0  0.3867438033871009  0.9410511936081748  0.9282003255024178  1.0000
  H   H28       1.0  0.6132561970421457  0.44105119356612293  0.5717996745209472  1.0000
  H   H29       1.0  0.5108198329896021  0.9254214657147221  0.07344779074843193  1.0000
  H   H30       1.0  0.48918016757552646  0.42542146567267014  0.4265522093168897  1.0000
  H   H31       1.0  0.48918016750758564  0.07457853377925269  0.9265522092959114  1.0000
  H   H32       1.0  0.5108198329216612  0.5745785338213045  0.5734477907274537  1.0000
  H   H33       1.0  0.6606855752730149  0.8079075440073353  0.11427406376708604  1.0000
  H   H34       1.0  0.33931442431225634  0.3079075439652835  0.385725936296055  1.0000
  H   H35       1.0  0.3393144242443154  0.19209245548663936  0.8857259362750768  1.0000
  H   H36       1.0  0.660685575205074  0.6920924555286913  0.6142740637461077  1.0000
  H   H37       1.0  0.9106059759024995  0.8237709334728531  0.1541355031514356  1.0000
  H   H38       1.0  0.08939402368277168  0.32377093343080127  0.3458644969117055  1.0000
  H   H39       1.0  0.08939402361483087  0.17622906661125057  0.8458644968907273  1.0000
  H   H40       1.0  0.9106059758345588  0.6762290666533024  0.6541355031304574  1.0000
  H   H41       1.0  0.9513842456802066  0.8810896136675098  0.28607752357882726  1.0000
  H   H42       1.0  0.04861575390506475  0.3810896136254579  0.2139224764843138  1.0000
  H   H43       1.0  0.04861575383712387  0.11891038582646495  0.7139224764633355  1.0000
  H   H44       1.0  0.9513842456122655  0.6189103858685168  0.786077523557849  1.0000
  H   H45       1.0  0.033823960053141464  0.8478691244420267  0.4303890503303547  1.0000
  H   H46       1.0  0.9661760405119869  0.3478691243999748  0.06961094973496691  1.0000
  H   H47       1.0  0.9661760404440463  0.15213087564207703  0.5696109497139887  1.0000
  H   H48       1.0  0.033823959985200644  0.6521308756841289  0.9303890503093765  1.0000
  H   H49       1.0  0.265279181790778  0.8933005579278372  0.5108747368725826  1.0000
  H   H50       1.0  0.7347208176586114  0.3933005578857854  0.9891252631486019  1.0000
  H   H51       1.0  0.7347208177265524  0.10669944215626644  0.4891252631695803  1.0000
  H   H52       1.0  0.26527918185871885  0.6066994421983183  0.010874736893560827  1.0000
  H   H53       1.0  0.4013793469754657  0.9802201877350544  0.4489876381217104  1.0000
  H   H54       1.0  0.5986206526098056  0.4802201876930024  0.05101236194143076  1.0000
  H   H55       1.0  0.5986206525418647  0.01977981234904941  0.5510123619204526  1.0000
  H   H56       1.0  0.40137934690752475  0.5197798123911013  0.9489876381007321  1.0000
  H   H57       1.0  0.3217222407848275  0.01428200783850123  0.30536418978179686  1.0000
  H   H58       1.0  0.678277759780301  0.5142820078805531  0.19463581028352475  1.0000
  H   H59       1.0  0.6782777597123603  0.9857179922456024  0.6946358102625466  1.0000
  H   H60       1.0  0.3217222407168866  0.4857179922035506  0.8053641897608186  1.0000
  H   H61       1.0  0.0038095985890334223  0.88664986680763  0.020374523136754596  1.0000
  H   H62       1.0  0.9961904009962379  0.38664986676557817  0.4796254769263865  1.0000
  H   H63       1.0  0.996190400928297  0.11335013327647368  0.9796254769054085  1.0000
  H   H64       1.0  0.003809598521092538  0.6133501333185255  0.5203745231157763  1.0000
  H   H65       1.0  0.1208878984289739  0.7899855373740906  0.9548805601953897  1.0000
  H   H66       1.0  0.8791121010204155  0.28998553733203886  0.5451194398257949  1.0000
  H   H67       1.0  0.8791121010883565  0.210014462710013  0.04511943984677316  1.0000
  H   H68       1.0  0.12088789849691478  0.7100144627520648  0.45488056021636797  1.0000
  H   H69       1.0  0.34905770035661166  0.7350029134578053  0.03220706095287277  1.0000
  H   H70       1.0  0.6509422992286595  0.23500291400588247  0.46779293911026837  1.0000
  H   H71       1.0  0.6509423001405761  0.26499708603616934  0.9677929390914707  1.0000
  H   H72       1.0  0.3490577002886707  0.7649970860782211  0.5322070609318945  1.0000
  H   H73       1.0  0.45917087909516924  0.7807707080730112  0.16752790278075497  1.0000
  H   H74       1.0  0.5408291214699593  0.2807707080309594  0.3324720972845666  1.0000
  H   H75       1.0  0.5408291214020184  0.21922929201109248  0.8324720972635885  1.0000
  H   H76       1.0  0.4591708790272283  0.7192292920531443  0.6675279027597767  1.0000
  H   H77       1.0  0.3468123355985218  0.8807765189635223  0.2336650705028663  1.0000
  H   H78       1.0  0.6531876639867494  0.3807765189214705  0.2663349295602748  1.0000
  H   H79       1.0  0.6531876639188086  0.11922348112058133  0.7663349295392966  1.0000
  H   H80       1.0  0.346812335530581  0.6192234811626331  0.7336650704818881  1.0000
  C   C1        1.0  0.08635773496011932  0.6332781955109589  0.14848732971454626  1.0000
  C   C2        1.0  0.9136422646251519  0.13327819546890707  0.3515126703485949  1.0000
  C   C3        1.0  0.9136422655370684  0.36672180457314474  0.851512670329797  1.0000
  C   C4        1.0  0.08635773489217846  0.8667218046151965  0.648487329693568  1.0000
  C   C5        1.0  0.15999178023396143  0.6783198316876786  0.21341629863703038  1.0000
  C   C6        1.0  0.8400082193513099  0.17831983164562681  0.2865837014261108  1.0000
  C   C7        1.0  0.840008219283369  0.32168016839642505  0.7865837014051323  1.0000
  C   C8        1.0  0.15999178114587784  0.8216801684384769  0.7134162986182326  1.0000
  C   C9        1.0  0.2913437949826246  0.6588809043968323  0.25893456038336166  1.0000
  C   C10       1.0  0.7086562055825039  0.15888090435478044  0.24106543968195995  1.0000
  C   C11       1.0  0.7086562055145631  0.3411190956872714  0.7410654396609817  1.0000
  C   C12       1.0  0.2913437949146837  0.8411190957293233  0.7589345603623834  1.0000
  C   C13       1.0  0.35022702786996657  0.5911209546146038  0.23721543946413903  1.0000
  C   C14       1.0  0.649772972695162  0.09112095457255186  0.26278456060118255  1.0000
  C   C15       1.0  0.6497729726272211  0.4088790454695  0.7627845605802043  1.0000
  C   C16       1.0  0.35022702780202575  0.9088790455115519  0.7372154394431608  1.0000
  C   C17       1.0  0.28061514961824874  0.5425183591590291  0.17426154759224802  1.0000
  C   C18       1.0  0.7193848499670226  0.0425183591169773  0.3257384524708931  1.0000
  C   C19       1.0  0.7193848498990816  0.45748164092507454  0.8257384524499148  1.0000
  C   C20       1.0  0.2806151495503078  0.9574816409671264  0.6742615475712698  1.0000
  C   C21       1.0  0.1492767359929354  0.5650322084141917  0.13127735363257914  1.0000
  C   C22       1.0  0.8507232642935878  0.06503220837213976  0.3687226458319904  1.0000
  C   C23       1.0  0.8507232642256468  0.43496779166991206  0.8687226458110121  1.0000
  C   C24       1.0  0.14927673592499455  0.934967791711964  0.6312773536116009  1.0000
  C   C25       1.0  0.13934734352236824  0.05823951628438285  0.1574861659263607  1.0000
  C   C26       1.0  0.860652656062903  0.5582395163264346  0.34251383413678044  1.0000
  C   C27       1.0  0.8606526559949622  0.9417604837997208  0.8425138341158022  1.0000
  C   C28       1.0  0.13934734345442737  0.441760483757669  0.6574861659053824  1.0000
  C   C29       1.0  0.11238014291075381  0.12236685509664558  0.20200738021390469  1.0000
  C   C30       1.0  0.8876198576543747  0.6223668551386974  0.29799261985141695  1.0000
  C   C31       1.0  0.8876198575864338  0.8776331449874581  0.7979926198304386  1.0000
  C   C32       1.0  0.11238014284281292  0.3776331449454063  0.7020073801929264  1.0000
  C   C33       1.0  0.15098282009279695  0.19818338270768152  0.1862475017596217  1.0000
  C   C34       1.0  0.8490171794924743  0.6981833827497334  0.3137524983035194  1.0000
  C   C35       1.0  0.8490171794245334  0.8018166173764222  0.813752498282541  1.0000
  C   C36       1.0  0.15098282100471339  0.3018166173343703  0.686247501740824  1.0000
  C   C37       1.0  0.2165580055588912  0.21006951466287271  0.1264312045606111  1.0000
  C   C38       1.0  0.78344199402638  0.7100695147049245  0.37356879550253  1.0000
  C   C39       1.0  0.7834419939584392  0.789930485421231  0.8735687954815518  1.0000
  C   C40       1.0  0.21655800647080764  0.28993048537917915  0.6264312045418134  1.0000
  C   C41       1.0  0.24545715539917695  0.14609907639480188  0.08297089469183365  1.0000
  C   C42       1.0  0.7545428451659516  0.6460990764368537  0.4170291053734879  1.0000
  C   C43       1.0  0.7545428450980107  0.8539009236893018  0.9170291053525098  1.0000
  C   C44       1.0  0.24545715533123605  0.35390092364724995  0.5829708946708554  1.0000
  C   C45       1.0  0.2072059014894058  0.06992363528503609  0.09813452152266718  1.0000
  C   C46       1.0  0.7927940980958655  0.5699236353270879  0.40186547854047394  1.0000
  C   C47       1.0  0.7927940980279246  0.9300763647990676  0.9018654785194957  1.0000
  C   C48       1.0  0.2072059014214649  0.43007636475701577  0.5981345215016889  1.0000
  C   C49       1.0  0.903599134992972  0.9512402591808079  0.13907559864787858  1.0000
  C   C50       1.0  0.09640086557215664  0.45124025913875615  0.36092440141744303  1.0000
  C   C51       1.0  0.09640086550421578  0.048759740903295705  0.8609244013964648  1.0000
  C   C52       1.0  0.903599134925031  0.5487597409453475  0.6390755986269003  1.0000
  C   C53       1.0  0.8193233815462646  0.01716316154034484  0.11469743552688737  1.0000
  C   C54       1.0  0.18067661803900667  0.5171631615823967  0.3853025645362538  1.0000
  C   C55       1.0  0.18067661797106574  0.9828368379536299  0.8853025645152754  1.0000
  C   C56       1.0  0.8193233814783237  0.48283683850170694  0.6146974355059092  1.0000
  C   C57       1.0  0.678172202710627  0.007346562368737323  0.0901805080767382  1.0000
  C   C58       1.0  0.32182779687464425  0.5073465624107891  0.4098194919864029  1.0000
  C   C59       1.0  0.3218277968067034  0.9926534377153664  0.9098194919654248  1.0000
  C   C60       1.0  0.6781722026426862  0.49265343767331454  0.5901805080557601  1.0000
  C   C61       1.0  0.6211020537088235  0.9326006338656357  0.09115786405922326  1.0000
  C   C62       1.0  0.378897946856305  0.4326006338235839  0.4088421360060983  1.0000
  C   C63       1.0  0.378897946788364  0.06739936621846794  0.90884213598512  1.0000
  C   C64       1.0  0.6211020536408826  0.5673993656703907  0.591157864038245  1.0000
  C   C65       1.0  0.7048020653749701  0.8666375153118473  0.11485073457733458  1.0000
  C   C66       1.0  0.29519793393169586  0.3666375152697954  0.38514926488505447  1.0000
  C   C67       1.0  0.29519793386375487  0.13336248418212746  0.8851492648640761  1.0000
  C   C68       1.0  0.7048020655856345  0.6333624842241793  0.6148507351571084  1.0000
  C   C69       1.0  0.8459350069993965  0.875709749975617  0.13810105278316237  1.0000
  C   C70       1.0  0.15406499356573197  0.3757097499335652  0.3618989472821592  1.0000
  C   C71       1.0  0.15406499349779118  0.12429025010848667  0.861898947261181  1.0000
  C   C72       1.0  0.8459350069314555  0.6242902501505385  0.6381010527621841  1.0000
  C   C73       1.0  0.13327506988891138  0.9469195979417654  0.28511532816962226  1.0000
  C   C74       1.0  0.8667249306762171  0.4469195978997136  0.21488467189569938  1.0000
  C   C75       1.0  0.8667249306082764  0.05308040155220924  0.7148846718747212  1.0000
  C   C76       1.0  0.1332750698209705  0.5530804015942611  0.7851153281486439  1.0000
  C   C77       1.0  0.051488042224788345  0.9011871402502502  0.32108259829090213  1.0000
  C   C78       1.0  0.9485119583403401  0.4011871402081983  0.17891740177441945  1.0000
  C   C79       1.0  0.9485119582723993  0.09881285983385359  0.6789174017534413  1.0000
  C   C80       1.0  0.05148804215684746  0.5988128598759054  0.8210825982699239  1.0000
  C   C81       1.0  0.09822423020004417  0.8824069957814124  0.4023234621213552  1.0000
  C   C82       1.0  0.9017757693852271  0.3824069957393606  0.09767653794178587  1.0000
  C   C83       1.0  0.9017757693172862  0.11759300430269125  0.5976765379208075  1.0000
  C   C84       1.0  0.09822423013210325  0.6175930043447431  0.902323462100377  1.0000
  C   C85       1.0  0.22553399138698835  0.9092107115747333  0.4478098797704564  1.0000
  C   C86       1.0  0.7744660081982829  0.40921071212281046  0.05219012029268471  1.0000
  C   C87       1.0  0.7744660081303422  0.09078928791924142  0.5521901202717066  1.0000
  C   C88       1.0  0.2255339913190474  0.5907892879612933  0.9478098797494781  1.0000
  C   C89       1.0  0.3042670103572547  0.9571882353266328  0.4128808242139786  1.0000
  C   C90       1.0  0.6957329902078737  0.45718823528458097  0.08711917585134299  1.0000
  C   C91       1.0  0.6957329901399328  0.04281176475747088  0.5871191758303647  1.0000
  C   C92       1.0  0.30426701028931386  0.5428117647995228  0.9128808241930004  1.0000
  C   C93       1.0  0.25912897899536536  0.9763803517913449  0.33160595870797693  1.0000
  C   C94       1.0  0.7408710203113006  0.47638035174929294  0.16839404075441203  1.0000
  C   C95       1.0  0.7408710202433596  0.02361964770262987  0.6683940407334338  1.0000
  C   C96       1.0  0.25912897920602984  0.5236196477446817  0.8316059592877508  1.0000
  C   C97       1.0  0.16794440319888518  0.8899570428863791  0.13108558340766396  1.0000
  C   C98       1.0  0.8320555973662432  0.3899570428443273  0.3689144166576576  1.0000
  C   C99       1.0  0.8320555972983026  0.11004295719772454  0.8689144166366795  1.0000
  C   C100      1.0  0.16794440313094436  0.6100429566496474  0.6310855833866857  1.0000
  C   C101      1.0  0.10436258787829386  0.8646979537164305  0.0524098240504909  1.0000
  C   C102      1.0  0.8956374114283722  0.3646979536743788  0.4475901754118981  1.0000
  C   C103      1.0  0.8956374113604312  0.13530204636767307  0.9475901753909198  1.0000
  C   C104      1.0  0.10436258781035299  0.6353020464097249  0.5524098240295127  1.0000
  C   C105      1.0  0.17007516894281174  0.810012137534244  0.015860466222318844  1.0000
  C   C106      1.0  0.8299248316223168  0.31001213749219214  0.48413953384300273  1.0000
  C   C107      1.0  0.8299248315543759  0.1899878625498597  0.9841395338220246  1.0000
  C   C108      1.0  0.17007516887487087  0.6899878625919115  0.5158604662013406  1.0000
  C   C109      1.0  0.2973208096178667  0.7801354985434832  0.05762714503859831  1.0000
  C   C110      1.0  0.7026791909472618  0.28013549850143127  0.4423728550267233  1.0000
  C   C111      1.0  0.702679190879321  0.21986450154062054  0.942372855005745  1.0000
  C   C112      1.0  0.2973208095499259  0.7198645015826725  0.5576271450176201  1.0000
  C   C113      1.0  0.360833147173383  0.8059455586907032  0.13562877079602184  1.0000
  C   C114      1.0  0.6391668533917456  0.3059455586486513  0.3643712292692998  1.0000
  C   C115      1.0  0.6391668533238046  0.19405444080327156  0.8643712292483214  1.0000
  C   C116      1.0  0.3608331471054421  0.6940544408453234  0.6356287707750435  1.0000
  C   C117      1.0  0.2973832975175101  0.8613328712309158  0.17256212393841192  1.0000
  C   C118      1.0  0.7026167030476184  0.361332871778993  0.3274378761269097  1.0000
  C   C119      1.0  0.7026167029796776  0.13866712826305894  0.8274378761059314  1.0000
  C   C120      1.0  0.29738329744956915  0.6386671283051107  0.6725621239174336  1.0000
  O   O1        1.0  0.5244244708038458  0.6547702848171842  0.07719388359577217  1.0000
  O   O2        1.0  0.4755755294826774  0.15477028477513238  0.4228061158687973  1.0000
  O   O3        1.0  0.4755755294147365  0.3452297152669195  0.9228061158478191  1.0000
  O   O4        1.0  0.524424470735905  0.8452297147188423  0.577193883574794  1.0000
  F   F1        1.0  0.10036553183369647  0.743879405877644  0.23427598045755071  1.0000
  F   F2        1.0  0.8996344684528266  0.24387940583559214  0.26572401900701875  1.0000
  F   F3        1.0  0.8996344683848858  0.2561205942064597  0.7657240189860405  1.0000
  F   F4        1.0  0.10036553204436097  0.7561205942485115  0.7342759810373246  1.0000
  F   F5        1.0  0.47861283841229285  0.5710187890279033  0.279340208593884  1.0000
  F   F6        1.0  0.521387160894373  0.07101878898585139  0.22065979086850504  1.0000
  F   F7        1.0  0.5213871611050375  0.42898121105620046  0.7206597914482789  1.0000
  F   F8        1.0  0.47861283834435203  0.9289812105081233  0.7793402085729058  1.0000
  F   F9        1.0  0.08078298629484638  0.5189516436659408  0.06991398538148363  1.0000
  F   F10       1.0  0.9192170142702821  0.0189516436238889  0.430086014683838  1.0000
  F   F11       1.0  0.9192170142023413  0.481048356418163  0.9300860146628597  1.0000
  F   F12       1.0  0.08078298622690547  0.9810483564602147  0.5699139853605053  1.0000
  P   P1        1.0  0.08565497870056583  0.9615729261508013  0.17825971020412723  1.0000
  P   P2        1.0  0.9143450208847055  0.46157292610874945  0.3217402898590139  1.0000
  P   P3        1.0  0.9143450208167645  0.03842707393330239  0.8217402898380356  1.0000
  P   P4        1.0  0.08565497863262499  0.5384270739753542  0.678259710183149  1.0000
  Cl  Cl1       1.0  0.42022999693251956  0.31513845816647656  0.9972193625978173  1.0000
  Cl  Cl2       1.0  0.5797700034967274  0.8151384582085284  0.5027806374255479  1.0000
  Cl  Cl3       1.0  0.5797700035646682  0.684861541917627  0.002780637446526263  1.0000
  Cl  Cl4       1.0  0.4202299970004602  0.1848615418755753  0.4972193626187953  1.0000
  I   I1        1.0  0.8867113618367878  0.6618346699296473  0.07954018766157782  1.0000
  I   I2        1.0  0.11328863774848344  0.16183466988759554  0.42045981240156327  1.0000
  I   I3        1.0  0.11328863768054262  0.33816533015445627  0.920459812380585  1.0000
  I   I4        1.0  0.8867113627487042  0.8381653301965081  0.5795401876427801  1.0000
  I   I5        1.0  0.3949621772369412  0.7272765576465503  0.3597830252632915  1.0000
  I   I6        1.0  0.60503782234833  0.22727655760449847  0.1402169747998496  1.0000
  I   I7        1.0  0.6050378222803892  0.27272344243755337  0.6402169747788714  1.0000
  I   I8        1.0  0.3949621771690003  0.7727234424796052  0.8597830252423133  1.0000
  I   I9        1.0  0.36749361832991817  0.4418033206306444  0.13808435199088517  1.0000
  I   I10       1.0  0.6325063812553531  0.9418033206726962  0.36191564807225596  1.0000
  I   I11       1.0  0.6325063811874122  0.5581966794534592  0.8619156480512777  1.0000
  I   I12       1.0  0.3674936182619773  0.0581966794114074  0.6380843519699069  1.0000
