data_image0
_chemical_formula_structural       H88C36N20O16I4
_chemical_formula_sum              "H88 C36 N20 O16 I4"
_cell_length_a       5.04431612738744
_cell_length_b       28.79284859139362
_cell_length_c       10.540389149919315
_cell_angle_alpha    90.0
_cell_angle_beta     98.33790369197608
_cell_angle_gamma    90.0

_space_group_name_H-M_alt    "P 1"
_space_group_IT_number       1

loop_
  _space_group_symop_operation_xyz
  'x, y, z'

loop_
  _atom_site_type_symbol
  _atom_site_label
  _atom_site_symmetry_multiplicity
  _atom_site_fract_x
  _atom_site_fract_y
  _atom_site_fract_z
  _atom_site_occupancy
  H   H1        1.0  0.3068737117985139  0.4315975625181626  0.6046642683915328  1.0000
  H   H2        1.0  0.6931262874684125  0.931597562667616  0.39533573215691675  1.0000
  H   H3        1.0  0.7522008912808184  0.44331485540528753  0.5611869800459154  1.0000
  H   H4        1.0  0.24779910768050586  0.9433148552074324  0.4388130195436951  1.0000
  H   H5        1.0  0.8768976764065194  0.4495492854385026  0.7180929411972843  1.0000
  H   H6        1.0  0.12310232453496879  0.9495492855879559  0.28190705838503904  1.0000
  H   H7        1.0  0.64878196746646  0.48927242281303357  0.6443425525003149  1.0000
  H   H8        1.0  0.3512180337806305  0.989272422962487  0.3556574480408476  1.0000
  H   H9        1.0  0.6181929302582768  0.36566098858127627  0.5982205841068883  1.0000
  H   H10       1.0  0.38180706870304737  0.8656609883834212  0.4017794154827223  1.0000
  H   H11       1.0  0.7283882561136256  0.3710888009598929  0.7658676116675699  1.0000
  H   H12       1.0  0.27161174315330094  0.8710888011093463  0.23413238888087973  1.0000
  H   H13       1.0  0.2700880250251832  0.34947421468425693  0.8111187976697827  1.0000
  H   H14       1.0  0.7299119742417431  0.8494742148337103  0.18888120287866692  1.0000
  H   H15       1.0  0.14843801612085564  0.349554099798531  0.6459950252420158  1.0000
  H   H16       1.0  0.8515619831460709  0.849554099600676  0.3540049753064339  1.0000
  H   H17       1.0  0.22229787254764052  0.2702011020307818  0.7129302403147055  1.0000
  H   H18       1.0  0.77770212869945  0.7702011018329267  0.2870697602264569  1.0000
  H   H19       1.0  0.4626201219396886  0.28499289689776497  0.6118176159617638  1.0000
  H   H20       1.0  0.5373798790017995  0.7849928970472183  0.3881823836205597  1.0000
  H   H21       1.0  0.6745363476410494  0.3018704579510765  0.8815814501891915  1.0000
  H   H22       1.0  0.3254636533004389  0.8018704577532214  0.11841854939313184  1.0000
  H   H23       1.0  0.0065653351381337625  0.2530935449776309  0.9736800093896979  1.0000
  H   H24       1.0  0.9934346638231906  0.7530935447797759  0.026319990199912553  1.0000
  H   H25       1.0  0.009514365914200873  0.1948188534453199  0.9135247282915968  1.0000
  H   H26       1.0  0.9904856333527257  0.6948188535947734  0.0864752722568528  1.0000
  H   H27       1.0  0.5087194599704506  0.2083345290049907  0.6459711924312308  1.0000
  H   H28       1.0  0.49128054127663967  0.7083345291544441  0.3540288081099316  1.0000
  H   H29       1.0  0.7677216143354934  0.17470494432091643  0.7287322561000106  1.0000
  H   H30       1.0  0.23227838462583084  0.6747049444703698  0.2712677434896  1.0000
  H   H31       1.0  0.2756569240331987  0.5594171580096647  0.9143446211212588  1.0000
  H   H32       1.0  0.7243430772138917  0.059417157860211386  0.0856553794199036  1.0000
  H   H33       1.0  0.6524089025674306  0.5164561624668431  0.8845086337311139  1.0000
  H   H34       1.0  0.34759109639389374  0.016456162664698203  0.11549136585849673  1.0000
  H   H35       1.0  0.7629435758913868  0.5671886530491269  0.9560004775279718  1.0000
  H   H36       1.0  0.2370564230699373  0.06718865289967353  0.04399952206163877  1.0000
  H   H37       1.0  0.7838667562259987  0.5581588976508468  0.7976657573437725  1.0000
  H   H38       1.0  0.2161332430409278  0.058158897848701825  0.20233424320467705  1.0000
  H   H39       1.0  0.19047691608846912  0.6365593099210917  0.7989061321394606  1.0000
  H   H40       1.0  0.8095230828728551  0.1365593101189467  0.20109386745015  1.0000
  H   H41       1.0  0.4090061172863826  0.635775968532399  0.945715431260271  1.0000
  H   H42       1.0  0.5909938836551056  0.13577596873025405  0.0542845683220523  1.0000
  H   H43       1.0  0.6037133315916405  0.6359321889211431  0.6820697607455544  1.0000
  H   H44       1.0  0.396286667675286  0.13593218911899824  0.3179302398028952  1.0000
  H   H45       1.0  0.8049746520599236  0.6401334370059247  0.8329268748256742  1.0000
  H   H46       1.0  0.1950253488815646  0.14013343685647142  0.16707312475664915  1.0000
  H   H47       1.0  0.5706435525012158  0.7144251964061872  0.8757235208184563  1.0000
  H   H48       1.0  0.4293564464601084  0.21442519625673384  0.12427647877115432  1.0000
  H   H49       1.0  0.7681027929324147  0.7163310022810669  0.7490888096997993  1.0000
  H   H50       1.0  0.23189720602890948  0.216331002478922  0.25091118988981126  1.0000
  H   H51       1.0  0.2638997704488204  0.692297221538482  0.6233271710243232  1.0000
  H   H52       1.0  0.7361002304926678  0.19229722138902858  0.37667282855800016  1.0000
  H   H53       1.0  0.015240731075612806  0.805135103128674  0.5724248644072116  1.0000
  H   H54       1.0  0.9847592701714777  0.3051351033265291  0.42757513613395076  1.0000
  H   H55       1.0  0.9628468166692993  0.7451719767113709  0.5328110711376774  1.0000
  H   H56       1.0  0.03715318259762716  0.24517197656191764  0.46718892941077217  1.0000
  H   H57       1.0  0.5654685343812268  0.7902163333294122  0.8169875441265213  1.0000
  H   H58       1.0  0.4345314665602614  0.29021633352726733  0.1830124554558021  1.0000
  H   H59       1.0  0.3372084562165649  0.8277419326660113  0.7258416051540859  1.0000
  H   H60       1.0  0.6627915427447593  0.3277419325165579  0.27415839443552464  1.0000
  H   H61       1.0  0.2905906447770018  0.3754940132332597  0.19943743957049842  1.0000
  H   H62       1.0  0.7094093561644864  0.8754940130354045  0.8005625600118249  1.0000
  H   H63       1.0  0.41570173530470717  0.3781099027226558  0.0498697972259325  1.0000
  H   H64       1.0  0.5842982659423832  0.8781099025248007  0.9501302033152298  1.0000
  H   H65       1.0  0.07596663243347501  0.4303801577904318  0.9688542363964044  1.0000
  H   H66       1.0  0.9240333665278492  0.9303801579398852  0.031145763193206173  1.0000
  H   H67       1.0  0.905074742612948  0.4206057060161769  0.09340983177117539  1.0000
  H   H68       1.0  0.09492525665397852  0.9206057061656303  0.9065901687772743  1.0000
  H   H69       1.0  0.4282511657646329  0.4678744309455614  0.09719045203097688  1.0000
  H   H70       1.0  0.5717488331966912  0.9678744307477063  0.9028095475586337  1.0000
  H   H71       1.0  0.27522622597957347  0.45656071014555094  0.23908130848612882  1.0000
  H   H72       1.0  0.7247737732873528  0.9565607099476959  0.7609186920623207  1.0000
  H   H73       1.0  0.11806961686836212  0.49510801631003215  0.11680898466200611  1.0000
  H   H74       1.0  0.8819303843787283  0.9951080164594855  0.8831910158791563  1.0000
  H   H75       1.0  0.9901628085573857  0.5772519307092125  0.38432935932998574  1.0000
  H   H76       1.0  0.00983719238410259  0.07725193055975918  0.6156706402523376  1.0000
  H   H77       1.0  0.9038970218054498  0.566011121069532  0.5315305061069218  1.0000
  H   H78       1.0  0.09610297944164058  0.06601112126738709  0.4684694944342406  1.0000
  H   H79       1.0  0.5125377587468818  0.6163391403830897  0.4764940765371935  1.0000
  H   H80       1.0  0.48746224219460643  0.1163391402336363  0.5235059230451299  1.0000
  H   H81       1.0  0.6110866315302779  0.6248764280092078  0.3231242224288558  1.0000
  H   H82       1.0  0.38891336743104643  0.1248764278597545  0.6768757771607548  1.0000
  H   H83       1.0  0.5850097475694632  0.5431677331389401  0.2756678933793209  1.0000
  H   H84       1.0  0.41499025169746323  0.043167732989486764  0.7243321071691287  1.0000
  H   H85       1.0  0.49311696946363087  0.5297320816169288  0.4303981681275704  1.0000
  H   H86       1.0  0.5068830294976933  0.02973208181478388  0.5696018314620402  1.0000
  H   H87       1.0  0.7815318402849031  0.5027391653886848  0.3796213773033155  1.0000
  H   H88       1.0  0.21846815867642116  0.0027391652392314623  0.620378622286295  1.0000
  C   C1        1.0  0.39732258721519936  0.4436890174117248  0.8094317801466012  1.0000
  C   C2        1.0  0.6026774120517271  0.9436890172138697  0.19056822040184834  1.0000
  C   C3        1.0  0.47462348385981484  0.42642743530662663  0.6824360231423653  1.0000
  C   C4        1.0  0.5253765154071116  0.9264274354560801  0.3175639774060844  1.0000
  C   C5        1.0  0.5545441409135781  0.37501267148772144  0.690616685080609  1.0000
  C   C6        1.0  0.4454558600279101  0.8750126712898664  0.30938331450171436  1.0000
  C   C7        1.0  0.3278802456138457  0.34275986478635256  0.7161602392717766  1.0000
  C   C8        1.0  0.6721197536530807  0.8427598649358059  0.28383976127667293  1.0000
  C   C9        1.0  0.40024634864420244  0.2917034336960501  0.7062116088371297  1.0000
  C   C10       1.0  0.5997536503171218  0.7917034338455035  0.29378839075248075  1.0000
  C   C11       1.0  0.736570616762183  0.23720977340329974  0.8113096976484908  1.0000
  C   C12       1.0  0.2634293844849073  0.7372097735527531  0.18869030289267155  1.0000
  C   C13       1.0  0.25509202541793424  0.5527622648895282  0.7097214480960305  1.0000
  C   C14       1.0  0.7449079755235539  0.052762265087383256  0.29027855148629284  1.0000
  C   C15       1.0  0.38917013324304284  0.5718770568231234  0.8394043188643403  1.0000
  C   C16       1.0  0.6108298660238837  0.0718770570209785  0.16059568168410931  1.0000
  C   C17       1.0  0.3893006352132061  0.6252097180610602  0.8444427378529035  1.0000
  C   C18       1.0  0.6106993660338843  0.12520971791160676  0.1555572626882589  1.0000
  C   C19       1.0  0.6067129759660166  0.6487330949805099  0.7804755762458223  1.0000
  C   C20       1.0  0.3932870229953075  0.14873309483105654  0.21952442334378808  1.0000
  C   C21       1.0  0.5849546888650492  0.7015460403607918  0.7784639125736963  1.0000
  C   C22       1.0  0.4150453100962751  0.20154604021133848  0.22153608701591435  1.0000
  C   C23       1.0  0.28144263364584193  0.7609564038255345  0.6719892189481412  1.0000
  C   C24       1.0  0.7185573676012486  0.26095640402338965  0.3280107815930212  1.0000
  C   C25       1.0  0.050664679694174694  0.3379245040349466  0.04576143272993992  1.0000
  C   C26       1.0  0.9493353192671495  0.8379245038370915  0.9542385668596708  1.0000
  C   C27       1.0  0.23288370646611983  0.3784926894401637  0.09532054072255168  1.0000
  C   C28       1.0  0.7671162924952044  0.8784926892423085  0.9046794588670589  1.0000
  C   C29       1.0  0.23986285807624202  0.4636353675679808  0.13603149620314836  1.0000
  C   C30       1.0  0.7601371411906843  0.9636353673701257  0.863968504345301  1.0000
  C   C31       1.0  0.872488713386813  0.6580155214535851  0.47790045419912536  1.0000
  C   C32       1.0  0.1275112855745112  0.15801552165144025  0.5220995453904852  1.0000
  C   C33       1.0  0.685973435528564  0.6185487595459195  0.424780955114822  1.0000
  C   C34       1.0  0.3140265637383624  0.11854875939646609  0.5752190454336275  1.0000
  C   C35       1.0  0.659712067898846  0.5344344763650632  0.37562944371180496  1.0000
  C   C36       1.0  0.34028793304264227  0.034434476562918336  0.6243705558705185  1.0000
  N   N1        1.0  0.7040777504260728  0.45440287328537415  0.6496935208268281  1.0000
  N   N2        1.0  0.2959222508210177  0.9544028734348275  0.3503064797143343  1.0000
  N   N3        1.0  0.6170013261614847  0.27883037812381367  0.8067955492336021  1.0000
  N   N4        1.0  0.38299867508560564  0.7788303782732671  0.19320445130756014  1.0000
  N   N5        1.0  0.9298080946513938  0.2273177872354173  0.9092162415305086  1.0000
  N   N6        1.0  0.07019190430993053  0.7273177870375622  0.09078375805910195  1.0000
  N   N7        1.0  0.6692884607885805  0.20569961604182257  0.7190365773584318  1.0000
  N   N8        1.0  0.33071153817274374  0.705699616191276  0.2809634222311787  1.0000
  N   N9        1.0  0.6647073885757158  0.5525511701108817  0.8710504018828318  1.0000
  N   N10       1.0  0.3352926103856084  0.052551169961428376  0.1289495977067787  1.0000
  N   N11       1.0  0.34986291473992404  0.7162561607802976  0.6911665733010769  1.0000
  N   N12       1.0  0.6501370842214003  0.2162561609781528  0.3088334262885337  1.0000
  N   N13       1.0  0.08065332847729231  0.7716791112026811  0.5779484577961649  1.0000
  N   N14       1.0  0.919346672464196  0.27167911105322773  0.4220515417861585  1.0000
  N   N15       1.0  0.4089512338273394  0.7947839713518381  0.74271313828779  1.0000
  N   N16       1.0  0.5910487671141488  0.2947839715496931  0.25728686129453354  1.0000
  N   N17       1.0  0.0945733110978862  0.4237634425531299  0.0688754760981188  1.0000
  N   N18       1.0  0.9054266881690403  0.9237634427025833  0.9311245244503308  1.0000
  N   N19       1.0  0.8283626597764983  0.5733314523431456  0.4338315648915089  1.0000
  N   N20       1.0  0.17163734147059223  0.07333145219369222  0.5661684356496535  1.0000
  O   O1        1.0  0.5793889229800483  0.45963142368469095  0.8933078062301413  1.0000
  O   O2        1.0  0.42061107826704225  0.9596314238341442  0.10669219431102121  1.0000
  O   O3        1.0  0.15172953780062495  0.4388962401510112  0.8233940887953718  1.0000
  O   O4        1.0  0.8482704631408633  0.9388962399531561  0.1766059107869515  1.0000
  O   O5        1.0  0.0003105720065545932  0.557302302308371  0.6870598392201254  1.0000
  O   O6        1.0  0.9996894269547697  0.05730230250622598  0.31294016036948513  1.0000
  O   O7        1.0  0.39705824606915746  0.5348986440543968  0.6338284209179945  1.0000
  O   O8        1.0  0.6029417528921668  0.034898644252251955  0.36617157867161604  1.0000
  O   O9        1.0  0.15484222912651974  0.2978056447864984  0.06406855154063504  1.0000
  O   O10       1.0  0.8451577701404067  0.7978056445886433  0.9359314490078144  1.0000
  O   O11       1.0  0.8169389033360214  0.3470481657374751  0.9907906944622056  1.0000
  O   O12       1.0  0.1830610979110691  0.8470481655396199  0.009209306078956767  1.0000
  O   O13       1.0  0.11146553265523729  0.6479539803358163  0.5229889972063658  1.0000
  O   O14       1.0  0.8885344682862509  0.1479539805336714  0.4770110023759576  1.0000
  O   O15       1.0  0.7674255805742073  0.6982736048565061  0.47232159544633856  1.0000
  O   O16       1.0  0.23257442067288323  0.1982736050543612  0.5276784050948239  1.0000
  I   I1        1.0  0.04251494414486157  0.5988096889848398  0.14326385984648382  1.0000
  I   I2        1.0  0.957485055122065  0.09880968918269496  0.8567361407019658  1.0000
  I   I3        1.0  0.8917817879701403  0.4027866111679736  0.3771534221797506  1.0000
  I   I4        1.0  0.10821821129678626  0.902786611317427  0.6228465783686988  1.0000
