data_image0
_chemical_formula_structural       H88C36N20O16Br4
_chemical_formula_sum              "H88 C36 N20 O16 Br4"
_cell_length_a       5.056501258727029
_cell_length_b       28.481952526423818
_cell_length_c       10.09041047918705
_cell_angle_alpha    90.0
_cell_angle_beta     97.61260030840691
_cell_angle_gamma    90.0

_space_group_name_H-M_alt    "P 1"
_space_group_IT_number       1

loop_
  _space_group_symop_operation_xyz
  'x, y, z'

loop_
  _atom_site_type_symbol
  _atom_site_label
  _atom_site_symmetry_multiplicity
  _atom_site_fract_x
  _atom_site_fract_y
  _atom_site_fract_z
  _atom_site_occupancy
  H   H1        1.0  0.31562868833463514  0.43070064872200187  0.6067015797696408  1.0000
  H   H2        1.0  0.68437131102071  0.930700648609232  0.39329842076090704  1.0000
  H   H3        1.0  0.7629741452032058  0.4406698321807755  0.5593136573558499  1.0000
  H   H4        1.0  0.23702585387213215  0.9406698324191051  0.44068634217487707  1.0000
  H   H5        1.0  0.8836343514799154  0.44885388135309773  0.722697536928288  1.0000
  H   H6        1.0  0.11636564957091418  0.9488538812403279  0.27730246259450275  1.0000
  H   H7        1.0  0.6592018654866985  0.4884373614166241  0.6424679303625735  1.0000
  H   H8        1.0  0.3407981338686466  0.9884373613038542  0.3575320701679742  1.0000
  H   H9        1.0  0.621195906922612  0.3633705386032914  0.601909387390604  1.0000
  H   H10       1.0  0.3788040921527261  0.8633705384905215  0.39809061214012315  1.0000
  H   H11       1.0  0.7303535890252625  0.36956851642227084  0.7756586362289312  1.0000
  H   H12       1.0  0.26964641230557435  0.8695685163095009  0.22434136429368026  1.0000
  H   H13       1.0  0.2738497784755401  0.3493378335199864  0.827196607456445  1.0000
  H   H14       1.0  0.7261502208798051  0.8493378334072165  0.17280339307410283  1.0000
  H   H15       1.0  0.15205568933580837  0.3485548773662848  0.6552432179024542  1.0000
  H   H16       1.0  0.8479443117150213  0.8485548772535149  0.3447567816203365  1.0000
  H   H17       1.0  0.22096567190494426  0.2685976209988632  0.7291700093220649  1.0000
  H   H18       1.0  0.7790343291458853  0.7685976212371928  0.2708299902007258  1.0000
  H   H19       1.0  0.46030370112258867  0.2821017538227337  0.621103148769595  1.0000
  H   H20       1.0  0.5396962999282409  0.7821017537099637  0.3788968507531957  1.0000
  H   H21       1.0  0.674068502138811  0.3009811852627354  0.8999921385752568  1.0000
  H   H22       1.0  0.3259314991920258  0.8009811851499653  0.10000786194735459  1.0000
  H   H23       1.0  0.9955048430513969  0.19148869569037225  0.9391476227409241  1.0000
  H   H24       1.0  0.004495158279439879  0.6914886959287018  0.06085237778168743  1.0000
  H   H25       1.0  0.9997732040572022  0.2508412495025338  0.9974245236460041  1.0000
  H   H26       1.0  0.0002267972736347053  0.7508412493897638  0.0025754768766075094  1.0000
  H   H27       1.0  0.7451397025421007  0.1694693692618851  0.7528310493584813  1.0000
  H   H28       1.0  0.25486029653323716  0.6694693695002147  0.24716895017224577  1.0000
  H   H29       1.0  0.4983886402703391  0.2048214220772904  0.6635449749550343  1.0000
  H   H30       1.0  0.5016113610604978  0.7048214219645204  0.33645502556757717  1.0000
  H   H31       1.0  0.2928151238712511  0.5609495481455343  0.9207978986612523  1.0000
  H   H32       1.0  0.7071848752040868  0.06094954825830428  0.07920210086947477  1.0000
  H   H33       1.0  0.6706586706907434  0.5183874180080255  0.8906553094575564  1.0000
  H   H34       1.0  0.3293413283845946  0.018387417769695887  0.10934469007317056  1.0000
  H   H35       1.0  0.7825466816824282  0.5701672813664725  0.9618227647882931  1.0000
  H   H36       1.0  0.21745331767291678  0.07016728147924242  0.03817723574225466  1.0000
  H   H37       1.0  0.8015005761150215  0.5598080073761703  0.7973351132655647  1.0000
  H   H38       1.0  0.19849942324032363  0.05980800748894037  0.2026648872649831  1.0000
  H   H39       1.0  0.20449831657525183  0.6388290463274839  0.8038385201911915  1.0000
  H   H40       1.0  0.7955016844755778  0.13882904644025393  0.19616147933159928  1.0000
  H   H41       1.0  0.4298908782430858  0.6383269462700271  0.9529168024116479  1.0000
  H   H42       1.0  0.5701091211122592  0.13832694603169757  0.04708319811890004  1.0000
  H   H43       1.0  0.6039331706956912  0.6382156189304756  0.6717505179976464  1.0000
  H   H44       1.0  0.39606683035513846  0.13821561904324556  0.3282494815251443  1.0000
  H   H45       1.0  0.8153048458344945  0.6433209567708184  0.8245530150620374  1.0000
  H   H46       1.0  0.18469515324084337  0.1433209568835884  0.17544698446868953  1.0000
  H   H47       1.0  0.5727074951812546  0.7182262024003347  0.8721501521686602  1.0000
  H   H48       1.0  0.4272925061495822  0.21822620251310476  0.12784984835395116  1.0000
  H   H49       1.0  0.7672494902015032  0.720291847652198  0.7381313908544103  1.0000
  H   H50       1.0  0.23275050887383472  0.22029184741386842  0.26186860867631684  1.0000
  H   H51       1.0  0.2667517206445327  0.6938462600717396  0.61211597326273  1.0000
  H   H52       1.0  0.7332482806863041  0.1938462601845095  0.38788402725988136  1.0000
  H   H53       1.0  0.018313031702281886  0.8075870229985275  0.552085717454631  1.0000
  H   H54       1.0  0.981686969628555  0.3075870231112975  0.44791428306798053  1.0000
  H   H55       1.0  0.9647981673034863  0.7468133425988384  0.5159436882408479  1.0000
  H   H56       1.0  0.035201832051858624  0.2468133427116083  0.48405631228969986  1.0000
  H   H57       1.0  0.5670509559697622  0.793944171103472  0.8030377841874742  1.0000
  H   H58       1.0  0.43294904310557575  0.293944171216242  0.19696221534325292  1.0000
  H   H59       1.0  0.3430924529245476  0.832005660005761  0.7072789761948604  1.0000
  H   H60       1.0  0.6569075461507903  0.332005660118531  0.2927210233358667  1.0000
  H   H61       1.0  0.28206274009358145  0.3771599074899797  0.2203573891242079  1.0000
  H   H62       1.0  0.7179372609572482  0.8771599073772097  0.7796426103985827  1.0000
  H   H63       1.0  0.39829325593890264  0.3816858008563283  0.0610768991553845  1.0000
  H   H64       1.0  0.6017067431364352  0.8816858007435584  0.9389231003753425  1.0000
  H   H65       1.0  0.8927576074744653  0.42199766356780527  0.12350664970198573  1.0000
  H   H66       1.0  0.10724239188087992  0.9219976638061348  0.8764933508285622  1.0000
  H   H67       1.0  0.04575969618732648  0.4322233434866872  0.9851501039365164  1.0000
  H   H68       1.0  0.9542403048635032  0.9322233437250167  0.014849895586274371  1.0000
  H   H69       1.0  0.4061169706038709  0.47018854123767756  0.10809783529280075  1.0000
  H   H70       1.0  0.5938830287514741  0.9701885414760071  0.8919021652377469  1.0000
  H   H71       1.0  0.26516292594234253  0.4597610247349215  0.26144050328252144  1.0000
  H   H72       1.0  0.7348370731329954  0.9597610246221515  0.7385594962482056  1.0000
  H   H73       1.0  0.10164484124021797  0.4983067005969073  0.13458353010348229  1.0000
  H   H74       1.0  0.8983551578351201  0.9983067004841372  0.8654164694272448  1.0000
  H   H75       1.0  0.013947363482497095  0.5764227369864727  0.3666413600486762  1.0000
  H   H76       1.0  0.9860526378483399  0.07642273674814322  0.6333586404739352  1.0000
  H   H77       1.0  0.9300094113842028  0.5647965379155772  0.5225019667561928  1.0000
  H   H78       1.0  0.06999058769113516  0.06479653802834717  0.47749803277453423  1.0000
  H   H79       1.0  0.535053884283624  0.6137596280936894  0.4676661043948705  1.0000
  H   H80       1.0  0.46494611507172107  0.11375962820645938  0.5323338961356773  1.0000
  H   H81       1.0  0.631437980503891  0.6229200099094356  0.3060747581468705  1.0000
  H   H82       1.0  0.36856201857144694  0.1229200100222056  0.6939252413838566  1.0000
  H   H83       1.0  0.6196078232940895  0.5402080084125427  0.256897507170494  1.0000
  H   H84       1.0  0.3803921777567402  0.04020800817421316  0.7431024923522968  1.0000
  H   H85       1.0  0.5214816580153532  0.5275989083283115  0.4181482075906675  1.0000
  H   H86       1.0  0.4785183430354764  0.027598908089981944  0.5818517919321232  1.0000
  H   H87       1.0  0.8119216309372724  0.4998980258390216  0.36819259149628475  1.0000
  H   H88       1.0  0.18807836813806555  0.9998980257262516  0.6318074080344424  1.0000
  C   C1        1.0  0.40175663085824104  0.4445221463751134  0.8186023633462551  1.0000
  C   C2        1.0  0.5982433682170969  0.944522146613443  0.18139763618447194  1.0000
  C   C3        1.0  0.48223616817170106  0.42572951340855586  0.6872753897988386  1.0000
  C   C4        1.0  0.5177638311836441  0.9257295132957859  0.3127246107317092  1.0000
  C   C5        1.0  0.5578101014236634  0.37363214513215737  0.6980737798273853  1.0000
  C   C6        1.0  0.44218989765167455  0.8736321453704868  0.30192621970334177  1.0000
  C   C7        1.0  0.33036330295553473  0.3417377917110838  0.7278681084513112  1.0000
  C   C8        1.0  0.6696366961198033  0.8417377915983139  0.27213189107941593  1.0000
  C   C9        1.0  0.3995820513994074  0.2898534614978016  0.7198292814881507  1.0000
  C   C10       1.0  0.6004179496514223  0.7898534613850317  0.28017071803464  1.0000
  C   C11       1.0  0.7250204223872224  0.23418514632421827  0.833282956445812  1.0000
  C   C12       1.0  0.2749795786636073  0.7341851462114483  0.166717043076979  1.0000
  C   C13       1.0  0.2770885628311536  0.5540327874418138  0.7077089425687737  1.0000
  C   C14       1.0  0.7229114365241917  0.054032787554583815  0.29229105796177424  1.0000
  C   C15       1.0  0.4073856859759632  0.5737235832002751  0.8425513980761209  1.0000
  C   C16       1.0  0.5926143150748664  0.07372358331304504  0.15744860144666983  1.0000
  C   C17       1.0  0.4048740875847475  0.627550884842523  0.8472783393895159  1.0000
  C   C18       1.0  0.595125913466082  0.12755088495529296  0.15272166013327482  1.0000
  C   C19       1.0  0.614010516884565  0.6515087858806256  0.7744999908485162  1.0000
  C   C20       1.0  0.3859894841662645  0.15150878599339562  0.22550000867427444  1.0000
  C   C21       1.0  0.587000622029045  0.7048272765490979  0.7708691249325604  1.0000
  C   C22       1.0  0.4129993773263  0.20482727631076844  0.22913087559798748  1.0000
  C   C23       1.0  0.2841077390308072  0.7637599216492812  0.6566623896327538  1.0000
  C   C24       1.0  0.7158922620200223  0.2637599217620511  0.34333760989003687  1.0000
  C   C25       1.0  0.04252124601223515  0.3392202659223066  0.060797919276906275  1.0000
  C   C26       1.0  0.9574787530631026  0.8392202661606362  0.9392020802538207  1.0000
  C   C27       1.0  0.21989494405613974  0.380615056146263  0.11240258057265516  1.0000
  C   C28       1.0  0.7801050552992054  0.8806150560334931  0.8875974199578927  1.0000
  C   C29       1.0  0.22256384102364976  0.46645443979567386  0.153884846563293  1.0000
  C   C30       1.0  0.7774361583316953  0.9664544400340035  0.8461151539672548  1.0000
  C   C31       1.0  0.8869026007415785  0.6574564641461111  0.4657639472555737  1.0000
  C   C32       1.0  0.11309739833375942  0.1574564642588811  0.5342360522751534  1.0000
  C   C33       1.0  0.7064887765938634  0.6168259350794544  0.41183523623353246  1.0000
  C   C34       1.0  0.2935112247369734  0.11682593519222437  0.5881647642890789  1.0000
  C   C35       1.0  0.6904943509883813  0.5319481378934221  0.3616563897787165  1.0000
  C   C36       1.0  0.3095056483669638  0.03194813765509258  0.6383436107518313  1.0000
  N   N1        1.0  0.7132746371116543  0.45314507206014676  0.6507391172170286  1.0000
  N   N2        1.0  0.2867253619636837  0.9531450719473767  0.34926088231369845  1.0000
  N   N3        1.0  0.6145975465152493  0.27697400108652276  0.824280506331859  1.0000
  N   N4        1.0  0.38540245256008865  0.7769740009737527  0.1757194931988681  1.0000
  N   N5        1.0  0.9114895316774975  0.22396561626461434  0.9372942168249612  1.0000
  N   N6        1.0  0.08851046965333927  0.7239656161518444  0.06270578369765033  1.0000
  N   N7        1.0  0.6526910478507106  0.20134430371933645  0.7412397708833378  1.0000
  N   N8        1.0  0.3473089512246273  0.701344303957666  0.2587602286473893  1.0000
  N   N9        1.0  0.6829759957559544  0.5547266243542118  0.8749910067860278  1.0000
  N   N10       1.0  0.3170240055748823  0.0547266244669818  0.12500899373658358  1.0000
  N   N11       1.0  0.3509806439204639  0.7187817450719729  0.6807994578039083  1.0000
  N   N12       1.0  0.6490193551548741  0.2187817451847429  0.3192005417268188  1.0000
  N   N13       1.0  0.08482545530867915  0.7738804075862118  0.5583780938826092  1.0000
  N   N14       1.0  0.9151745437666587  0.27388040769898175  0.4416219056481178  1.0000
  N   N15       1.0  0.4128217978668946  0.7986040222803487  0.7259071812791527  1.0000
  N   N16       1.0  0.5871782034639422  0.2986040223931186  0.2740928192434588  1.0000
  N   N17       1.0  0.07454320155554006  0.4257789225913952  0.08898911581556063  1.0000
  N   N18       1.0  0.9254567994952895  0.9257789224786253  0.91101088370723  1.0000
  N   N19       1.0  0.8547757197313604  0.5717741315273784  0.4204972729776843  1.0000
  N   N20       1.0  0.1452242793439775  0.07177413128904886  0.5795027265530428  1.0000
  O   O1        1.0  0.5813186173458116  0.4612361205859177  0.905129206042269  1.0000
  O   O2        1.0  0.41868138200953353  0.9612361204731478  0.0948707944882789  1.0000
  O   O3        1.0  0.15606138724410568  0.44024619233414614  0.8326843501315808  1.0000
  O   O4        1.0  0.8439386121112394  0.9402461925724757  0.167315650398967  1.0000
  O   O5        1.0  0.023394106358523237  0.5580841936750398  0.6843510251732322  1.0000
  O   O6        1.0  0.9766058927168147  0.058084193787809796  0.31564897435749484  1.0000
  O   O7        1.0  0.4210235033143898  0.5360239322018461  0.6284602488789731  1.0000
  O   O8        1.0  0.57897649773644  0.03602393231461608  0.3715397506438176  1.0000
  O   O9        1.0  0.151278068991841  0.29900027858340367  0.07640845019643586  1.0000
  O   O10       1.0  0.8487219303635041  0.7990002784706337  0.9235915503341121  1.0000
  O   O11       1.0  0.8081294156485376  0.34800701745445034  0.006588054080671874  1.0000
  O   O12       1.0  0.19187058370680754  0.8480070176927799  0.993411946449876  1.0000
  O   O13       1.0  0.12573493921791157  0.6481365858914958  0.5115748221105639  1.0000
  O   O14       1.0  0.8742650618329181  0.1481365860042659  0.4884251774122267  1.0000
  O   O15       1.0  0.7771244021089726  0.697712223611207  0.4600028498880513  1.0000
  O   O16       1.0  0.22287559696636536  0.19771222337287755  0.5399971496426759  1.0000
  Br  Br1       1.0  0.05705766208748348  0.599161023604961  0.13612481796534803  1.0000
  Br  Br2       1.0  0.9429423389633462  0.09916102371773097  0.8638751815574427  1.0000
  Br  Br3       1.0  0.8773313569535541  0.4015528886016308  0.3840551760760504  1.0000
  Br  Br4       1.0  0.12266864212178374  0.9015528884888608  0.6159448234546767  1.0000
