data_image0
_chemical_formula_structural       H88C36N20O16Cl4
_chemical_formula_sum              "H88 C36 N20 O16 Cl4"
_cell_length_a       5.06294593601429
_cell_length_b       28.240443443824862
_cell_length_c       9.8233798402183
_cell_angle_alpha    90.0
_cell_angle_beta     97.12919598658254
_cell_angle_gamma    90.0

_space_group_name_H-M_alt    "P 1"
_space_group_IT_number       1

loop_
  _space_group_symop_operation_xyz
  'x, y, z'

loop_
  _atom_site_type_symbol
  _atom_site_label
  _atom_site_symmetry_multiplicity
  _atom_site_fract_x
  _atom_site_fract_y
  _atom_site_fract_z
  _atom_site_occupancy
  H   H1        1.0  0.3346474984211585  0.4299637091093584  0.6054604567366816  1.0000
  H   H2        1.0  0.6653525012149532  0.9299637090416389  0.394539542825146  1.0000
  H   H3        1.0  0.7816982225529809  0.438698886037111  0.5555665167754483  1.0000
  H   H4        1.0  0.21830177931897068  0.9386988859693915  0.4444334838041026  1.0000
  H   H5        1.0  0.901942358139393  0.44759417128642703  0.7234093376127816  1.0000
  H   H6        1.0  0.09805764373255835  0.9475941712187075  0.2765906629667692  1.0000
  H   H7        1.0  0.6806151125351684  0.48737976255148496  0.6405328638772521  1.0000
  H   H8        1.0  0.31938488710094326  0.9873797624837655  0.3594671356845755  1.0000
  H   H9        1.0  0.6321784988785831  0.361119260407009  0.6004924988296779  1.0000
  H   H10       1.0  0.36782150075752856  0.8611192603392894  0.3995075007321496  1.0000
  H   H11       1.0  0.744521434121602  0.367856747032475  0.7779740888532342  1.0000
  H   H12       1.0  0.25547856748761816  0.8678567469647556  0.22202591070043803  1.0000
  H   H13       1.0  0.1645778257617078  0.3475116978783112  0.6608311651765896  1.0000
  H   H14       1.0  0.8354221738744039  0.8475116978105917  0.3391688343852379  1.0000
  H   H15       1.0  0.29018843511100717  0.3490479520836072  0.8360604344384835  1.0000
  H   H16       1.0  0.7098115647878359  0.8490479520158878  0.16393956614922264  1.0000
  H   H17       1.0  0.2291335079138373  0.2671531615644551  0.7398796373758931  1.0000
  H   H18       1.0  0.7708664919850058  0.7671531614967356  0.26012036321181314  1.0000
  H   H19       1.0  0.4664468914051569  0.27930054093129764  0.625837170635321  1.0000
  H   H20       1.0  0.5335531082309548  0.7793005408635781  0.3741628289265065  1.0000
  H   H21       1.0  0.6857178103259922  0.29996282695951476  0.909194954080501  1.0000
  H   H22       1.0  0.3142821895728509  0.7999628268917952  0.09080504650720533  1.0000
  H   H23       1.0  0.9995767252602747  0.18900771054171067  0.9532573363981025  1.0000
  H   H24       1.0  0.0004232743758367519  0.6890077104739911  0.04674266316372487  1.0000
  H   H25       1.0  0.007978592816563596  0.2493467503088997  0.008883688829295426  1.0000
  H   H26       1.0  0.9920214068195481  0.7493467505952821  0.9911163107325323  1.0000
  H   H27       1.0  0.49925652404050974  0.20176524640394514  0.6742745373018264  1.0000
  H   H28       1.0  0.5007434758583333  0.7017652463362256  0.32572546328587976  1.0000
  H   H29       1.0  0.741429169975167  0.16548620843352588  0.7675136098540182  1.0000
  H   H30       1.0  0.25857082992367614  0.6654862083658064  0.23248639073368807  1.0000
  H   H31       1.0  0.3045530587994298  0.5610237332680553  0.9261156782112279  1.0000
  H   H32       1.0  0.6954469408366819  0.06102373333577487  0.07388432135059966  1.0000
  H   H33       1.0  0.6851865334871176  0.5191084208419386  0.8955891842595067  1.0000
  H   H34       1.0  0.3148134661489941  0.019108420909658103  0.10441081530232078  1.0000
  H   H35       1.0  0.7954046091934728  0.5717852732064961  0.9667388931208608  1.0000
  H   H36       1.0  0.20459539070537022  0.07178527327421567  0.0332611074668454  1.0000
  H   H37       1.0  0.8130725121507018  0.5606269912685082  0.7980849986207649  1.0000
  H   H38       1.0  0.18692748774814127  0.060626991336227766  0.20191500196694126  1.0000
  H   H39       1.0  0.20930686782361002  0.6391933691093334  0.8089366152310941  1.0000
  H   H40       1.0  0.7906931318125017  0.139193369177053  0.1910633843307335  1.0000
  H   H41       1.0  0.4411005643690336  0.6395004676864947  0.9583402598950961  1.0000
  H   H42       1.0  0.5588994355298095  0.1395004677542142  0.041659740692610164  1.0000
  H   H43       1.0  0.5975599504812275  0.6395107483324264  0.6652192806297623  1.0000
  H   H44       1.0  0.40244004941761563  0.1395107484001459  0.33478071995794384  1.0000
  H   H45       1.0  0.8169026186595472  0.6452791910385065  0.8179013328299144  1.0000
  H   H46       1.0  0.18309738123929592  0.14527919110622603  0.1820986677577918  1.0000
  H   H47       1.0  0.5671392954925606  0.7204320484722689  0.8702331705473821  1.0000
  H   H48       1.0  0.43286070414355104  0.22043204853998843  0.12976682901444553  1.0000
  H   H49       1.0  0.759991301844494  0.7227579811415153  0.7313528485894767  1.0000
  H   H50       1.0  0.24000869779161763  0.22275798120923496  0.26864715097235076  1.0000
  H   H51       1.0  0.26130026198886674  0.694629240472831  0.6060599413396017  1.0000
  H   H52       1.0  0.7386997379099762  0.19462924018644837  0.3939400592481045  1.0000
  H   H53       1.0  0.009071531682429211  0.8088911895253903  0.5417243472325232  1.0000
  H   H54       1.0  0.9909284679536825  0.30889118959310985  0.45827565232930434  1.0000
  H   H55       1.0  0.9581106564265809  0.7474559474247789  0.5070990111078608  1.0000
  H   H56       1.0  0.04188934347226229  0.24745594749249858  0.4929009894798454  1.0000
  H   H57       1.0  0.5604448823067755  0.7963878996708109  0.7951085115925098  1.0000
  H   H58       1.0  0.4395551173293361  0.2963878997385304  0.20489148796931766  1.0000
  H   H59       1.0  0.33635718540331977  0.8346400780457298  0.6965735175945881  1.0000
  H   H60       1.0  0.6636428142327919  0.33464007811344937  0.30342648196723954  1.0000
  H   H61       1.0  0.2851759581081053  0.3780740267495573  0.2307668218638817  1.0000
  H   H62       1.0  0.7148240417907378  0.8780740266818379  0.7692331787238245  1.0000
  H   H63       1.0  0.3917135253913518  0.38474993431365134  0.06507242422660749  1.0000
  H   H64       1.0  0.6082864742447599  0.8847499342459318  0.9349275753352201  1.0000
  H   H65       1.0  0.004603913418756114  0.4321823360981531  0.9988580234214288  1.0000
  H   H66       1.0  0.9953960862173556  0.9321823360304337  0.0011419761403988807  1.0000
  H   H67       1.0  0.8979230953311955  0.4223046962319492  0.1544470183406002  1.0000
  H   H68       1.0  0.10207690456764756  0.9223046961642297  0.8455529822471062  1.0000
  H   H69       1.0  0.393295725073305  0.4713124953747998  0.10493504770641167  1.0000
  H   H70       1.0  0.606704274825538  0.9713124956611824  0.8950649528812946  1.0000
  H   H71       1.0  0.27231392802507126  0.4630408518907072  0.26921356085409126  1.0000
  H   H72       1.0  0.7276860718737718  0.9630408518229876  0.7307864397336149  1.0000
  H   H73       1.0  0.09575615498618123  0.5005093134644356  0.14008164101632367  1.0000
  H   H74       1.0  0.9042438449126619  0.0005093135321550726  0.8599183595713825  1.0000
  H   H75       1.0  0.9477066506959873  0.5640812564323696  0.5157671961282223  1.0000
  H   H76       1.0  0.052293348940124364  0.06408125650008908  0.4842328034336053  1.0000
  H   H77       1.0  0.022725875396859243  0.5758858146951716  0.3526834777898471  1.0000
  H   H78       1.0  0.9772741245019838  0.07588581476289126  0.6473165227978591  1.0000
  H   H79       1.0  0.5445708574188521  0.6114314721844665  0.46207878346045683  1.0000
  H   H80       1.0  0.4554291422172595  0.11143147225218608  0.5379212161013707  1.0000
  H   H81       1.0  0.6391147393223495  0.6213510904991448  0.295454767292422  1.0000
  H   H82       1.0  0.3608852603137622  0.12135109056686431  0.7045452322694056  1.0000
  H   H83       1.0  0.6356301100167117  0.537363664284751  0.24668097055555305  1.0000
  H   H84       1.0  0.36436989185523994  0.037363664352470564  0.7533190300239978  1.0000
  H   H85       1.0  0.5385103125221989  0.5257099496164722  0.41354583282704316  1.0000
  H   H86       1.0  0.4614896873766441  0.02570994968419175  0.5864541677606631  1.0000
  H   H87       1.0  0.8286757743124212  0.4976147654321923  0.3625576726978788  1.0000
  H   H88       1.0  0.17132422532369057  0.9976147653644727  0.6374423268639487  1.0000
  C   C1        1.0  0.41820423767562154  0.4444465833182418  0.8222781793005072  1.0000
  C   C2        1.0  0.5817957619604901  0.9444465836046243  0.17772182026132025  1.0000
  C   C3        1.0  0.49978616042407265  0.42473831559549463  0.6879270870051408  1.0000
  C   C4        1.0  0.5002138392120391  0.9247383155277751  0.3120729125566867  1.0000
  C   C5        1.0  0.5715947720269237  0.372060513529136  0.6995827543592543  1.0000
  C   C6        1.0  0.42840522760918803  0.8720605134614166  0.3004172452025732  1.0000
  C   C7        1.0  0.3436781776172722  0.3405991530952127  0.7337651510344888  1.0000
  C   C8        1.0  0.6563218239919479  0.8405991530274931  0.2662348485191834  1.0000
  C   C9        1.0  0.40847215698127104  0.28800613262956676  0.7274583717207941  1.0000
  C   C10       1.0  0.5915278446279492  0.7880061325618472  0.27254162783287816  1.0000
  C   C11       1.0  0.7284929696653971  0.23164582287855134  0.8453804557546718  1.0000
  C   C12       1.0  0.2715070299707146  0.7316458228108319  0.15461954380715567  1.0000
  C   C13       1.0  0.2921085244310527  0.5539879411284866  0.7074455879616159  1.0000
  C   C14       1.0  0.707891475205059  0.05398794119620608  0.2925544116002115  1.0000
  C   C15       1.0  0.41905485445461466  0.5741807292174672  0.8457229853653392  1.0000
  C   C16       1.0  0.5809451471546055  0.07418072893108471  0.1542770141883331  1.0000
  C   C17       1.0  0.4118231466975386  0.6284317714522523  0.8501372596437787  1.0000
  C   C18       1.0  0.5881768549116815  0.1284317715199718  0.1498627399098934  1.0000
  C   C19       1.0  0.6130904061125505  0.6530678127164036  0.7706790905744161  1.0000
  C   C20       1.0  0.38690959378629247  0.1530678127841231  0.2293209100132901  1.0000
  C   C21       1.0  0.5818157305254417  0.70677957977903  0.7663608312570093  1.0000
  C   C22       1.0  0.4181842693734015  0.20677957984674966  0.233639169330697  1.0000
  C   C23       1.0  0.27792969421259334  0.7654557076272397  0.6481650768146634  1.0000
  C   C24       1.0  0.7220703056862497  0.26545570769495924  0.3518349237730428  1.0000
  C   C25       1.0  0.045647871348251545  0.33973354593686106  0.06814820583750536  1.0000
  C   C26       1.0  0.9543521282878601  0.8397335458691416  0.9318517937243223  1.0000
  C   C27       1.0  0.217426608621813  0.3819913752933243  0.12089919960154291  1.0000
  C   C28       1.0  0.7825733932501384  0.8819913752256047  0.879100800978008  1.0000
  C   C29       1.0  0.2172494340924502  0.4684919486592907  0.15900733621424798  1.0000
  C   C30       1.0  0.7827505655436614  0.9684919485915713  0.8409926633475796  1.0000
  C   C31       1.0  0.8897275738547259  0.6568811692670616  0.4584252851910247  1.0000
  C   C32       1.0  0.11027242775449424  0.15688116898067914  0.5415747143626475  1.0000
  C   C33       1.0  0.7146285612854433  0.6153323401088364  0.4036755052651863  1.0000
  C   C34       1.0  0.2853714383506684  0.11533234017655603  0.5963244942966414  1.0000
  C   C35       1.0  0.7067826696223454  0.5298201506560165  0.35441712687485066  1.0000
  C   C36       1.0  0.2932173302764977  0.02982015072373602  0.6455828737128555  1.0000
  N   N1        1.0  0.732663353071706  0.4517514625921934  0.6494602701279737  1.0000
  N   N2        1.0  0.267336646827137  0.951751462524474  0.3505397304597325  1.0000
  N   N3        1.0  0.6237667638293589  0.27516888024289177  0.8335009611550871  1.0000
  N   N4        1.0  0.3762332358067528  0.7751688801751723  0.16649903840674055  1.0000
  N   N5        1.0  0.9159478685959637  0.221754761834994  0.9512844344294665  1.0000
  N   N6        1.0  0.08405213104014791  0.7217547617672745  0.04871556513236096  1.0000
  N   N7        1.0  0.64890119700201  0.19764506782985683  0.7553016238441314  1.0000
  N   N8        1.0  0.35109880263410165  0.6976450677621373  0.24469837571769615  1.0000
  N   N9        1.0  0.6954929788117742  0.5557491581610355  0.878655250556462  1.0000
  N   N10       1.0  0.3045070210870689  0.055749158228755036  0.1213447500312443  1.0000
  N   N11       1.0  0.3448625597632772  0.7202585108290039  0.6750223745243669  1.0000
  N   N12       1.0  0.655137441845943  0.22025851089672344  0.3249776250293054  1.0000
  N   N13       1.0  0.07763918748221714  0.7750791184826887  0.5481793333562937  1.0000
  N   N14       1.0  0.9223608124166259  0.2750791181963062  0.45182066723141256  1.0000
  N   N15       1.0  0.4079804906647006  0.8010570505027477  0.7156979685045707  1.0000
  N   N16       1.0  0.5920195112072508  0.30105705057046717  0.2843020320749803  1.0000
  N   N17       1.0  0.06291895084689784  0.42669945760483197  0.10309394147789228  1.0000
  N   N18       1.0  0.937081049051945  0.9266994575371124  0.8969060591098138  1.0000
  N   N19       1.0  0.8685367615266874  0.5705516551838437  0.4115582661353093  1.0000
  N   N20       1.0  0.13146323837215562  0.07055165525156322  0.5884417344523969  1.0000
  O   O1        1.0  0.5992033274611698  0.4611952725143183  0.9102769624268008  1.0000
  O   O2        1.0  0.40079667243767325  0.9611952724465989  0.08972303816090532  1.0000
  O   O3        1.0  0.17339372238365836  0.44119117338875985  0.8373785430444657  1.0000
  O   O4        1.0  0.8266062775151848  0.9411911733210404  0.16262145754324045  1.0000
  O   O5        1.0  0.03937079947270525  0.5580668763700359  0.682650058486311  1.0000
  O   O6        1.0  0.9606292004261378  0.05806687643775548  0.31734994210139517  1.0000
  O   O7        1.0  0.4382442285497994  0.5355902523303806  0.6269725061420626  1.0000
  O   O8        1.0  0.5617557713490436  0.035590252398100174  0.37302749444564365  1.0000
  O   O9        1.0  0.15841974100923725  0.29952701793886394  0.08301769606737083  1.0000
  O   O10       1.0  0.8415802586268744  0.7995270178711443  0.9169823034944568  1.0000
  O   O11       1.0  0.8112629690817607  0.347950739851029  0.013355108251728283  1.0000
  O   O12       1.0  0.1887370308170823  0.8479507397833095  0.9866448923359779  1.0000
  O   O13       1.0  0.1285186249856369  0.6482688562032176  0.5050838204876401  1.0000
  O   O14       1.0  0.8714813749132061  0.14826885627093722  0.49491618010006616  1.0000
  O   O15       1.0  0.7757226826336056  0.6970896689054868  0.45250208452697654  1.0000
  O   O16       1.0  0.22427731726523747  0.19708966861910435  0.5474979160607296  1.0000
  Cl  Cl1       1.0  0.056995638280171734  0.5992189139544216  0.13201903732378847  1.0000
  Cl  Cl2       1.0  0.94300436135594  0.09921891366803912  0.867980962238039  1.0000
  Cl  Cl3       1.0  0.8694118696649769  0.40146663569757485  0.3843681186561122  1.0000
  Cl  Cl4       1.0  0.1305881299711348  0.9014666359839574  0.6156318809057153  1.0000
