data_image0
_chemical_formula_structural       H72C76N12O28S4Cl4
_chemical_formula_sum              "H72 C76 N12 O28 S4 Cl4"
_cell_length_a       26.79895895076783
_cell_length_b       4.706052297457704
_cell_length_c       18.431806773129406
_cell_angle_alpha    90.0
_cell_angle_beta     122.35744318517847
_cell_angle_gamma    90.0

_space_group_name_H-M_alt    "P 1"
_space_group_IT_number       1

loop_
  _space_group_symop_operation_xyz
  'x, y, z'

loop_
  _atom_site_type_symbol
  _atom_site_label
  _atom_site_symmetry_multiplicity
  _atom_site_fract_x
  _atom_site_fract_y
  _atom_site_fract_z
  _atom_site_occupancy
  H   H1        1.0  0.31405791237505176  0.1934212036894987  0.6365552433624674  1.0000
  H   H2        1.0  0.18594208777357166  0.6934212039596078  0.8634447567721715  1.0000
  H   H3        1.0  0.6859420873687601  0.8065787968507195  0.3634447565839012  1.0000
  H   H4        1.0  0.8140579123434495  0.30657879658061044  0.13655524317436177  1.0000
  H   H5        1.0  0.20562317915637202  0.20792777643559418  0.48517178146333123  1.0000
  H   H6        1.0  0.2943768207155339  0.7079277767057033  0.014828218509853094  1.0000
  H   H7        1.0  0.7943768205874396  0.7920722219797008  0.5148282184830374  1.0000
  H   H8        1.0  0.7056231794014873  0.29207222170959163  0.9851717814366802  1.0000
  H   H9        1.0  0.136873560830774  0.8392875536325248  0.510977052322087  1.0000
  H   H10       1.0  0.3631264393178495  0.33928755336241573  0.989022947812552  1.0000
  H   H11       1.0  0.8631264392862473  0.16071244690769343  0.48902294762444626  1.0000
  H   H12       1.0  0.6368735607991717  0.6607124471778025  0.010977052133981292  1.0000
  H   H13       1.0  0.2909807495067636  0.8224476132768233  0.8034509756461359  1.0000
  H   H14       1.0  0.2090192506418599  0.32244761300671415  0.6965490244885031  1.0000
  H   H15       1.0  0.7090192508465809  0.17755238726339498  0.19654902494266543  1.0000
  H   H16       1.0  0.7909807494751614  0.6775523875335041  0.3034509754580301  1.0000
  H   H17       1.0  0.3186129364094844  0.5642599916355616  0.7645039064596565  1.0000
  H   H18       1.0  0.18138706373913913  0.0642599913654525  0.7354960936749825  1.0000
  H   H19       1.0  0.6813870637075369  0.4357400089046567  0.23549609348687672  1.0000
  H   H20       1.0  0.8186129366142052  0.9357400091747656  0.26450390691381886  1.0000
  H   H21       1.0  0.37509152678266394  0.0921325821717341  0.8533282756534857  1.0000
  H   H22       1.0  0.12490847312963621  0.5921325824418433  0.6466717238388849  1.0000
  H   H23       1.0  0.6249084733343573  0.9078674183684841  0.14667172429304745  1.0000
  H   H24       1.0  0.8750915266141757  0.40786741809837507  0.35332827610748374  1.0000
  H   H25       1.0  0.5436654165548436  0.4527107765357653  0.009285781939218855  1.0000
  H   H26       1.0  0.9563345837668985  0.9527107768058745  0.4907142184614768  1.0000
  H   H27       1.0  0.45633458379850095  0.5472892240044529  0.9907142186495824  1.0000
  H   H28       1.0  0.043665416350122555  0.047289223734343785  0.5092857814850564  1.0000
  H   H29       1.0  0.5355431850493318  0.6439150669101196  0.641432025194737  1.0000
  H   H30       1.0  0.9644568149395951  0.1439150666400105  0.8585679747249806  1.0000
  H   H31       1.0  0.4644568150676894  0.35608493363009863  0.3585679747517963  1.0000
  H   H32       1.0  0.03554318480421658  0.8560849339002078  0.14143202522138806  1.0000
  H   H33       1.0  0.5582769630460437  0.969102498598187  0.694003315616502  1.0000
  H   H34       1.0  0.9417230369428834  0.4691024983280779  0.8059966843032157  1.0000
  H   H35       1.0  0.44172303707097743  0.03089749981710798  0.30599668433003124  1.0000
  H   H36       1.0  0.05827696317413778  0.530897500087217  0.19400331564331758  1.0000
  H   H37       1.0  0.560380565459929  0.9913329145365131  0.8888392135829748  1.0000
  H   H38       1.0  0.939619434155789  0.491332914266404  0.6111607863365783  1.0000
  H   H39       1.0  0.439619434283883  0.00866708600370512  0.11116078636339398  1.0000
  H   H40       1.0  0.06038056558802294  0.5086670862738143  0.3888392136097904  1.0000
  H   H41       1.0  0.36101488003273846  0.5926338858381685  0.691275857806316  1.0000
  H   H42       1.0  0.13898512011588507  0.09263388556805939  0.8087241423283229  1.0000
  H   H43       1.0  0.6389851203206061  0.40736611257712646  0.30872414278248533  1.0000
  H   H44       1.0  0.8610148800011361  0.9073661128472356  0.19127585761821028  1.0000
  H   H45       1.0  0.18472765053329848  0.2067404500637605  0.2884729640467226  1.0000
  H   H46       1.0  0.3152723493386074  0.7067404503338696  0.21152703592646172  1.0000
  H   H47       1.0  0.8152723492105133  0.7932595504764578  0.7115270358996462  1.0000
  H   H48       1.0  0.6847276507784138  0.29325955020634864  0.7884729640200715  1.0000
  H   H49       1.0  0.1714553639200364  0.45429961990753137  0.34524482799951733  1.0000
  H   H50       1.0  0.32854463595186956  0.9542996201776405  0.15475517197366703  1.0000
  H   H51       1.0  0.8285446358237755  0.5457003785077635  0.6547551719468514  1.0000
  H   H52       1.0  0.6714553637919423  0.04570038036257775  0.8452448279727017  1.0000
  H   H53       1.0  0.3494092637942729  0.9653399394762738  0.5081871136418084  1.0000
  H   H54       1.0  0.15059073635435058  0.4653399392061647  0.9918128864928306  1.0000
  H   H55       1.0  0.6505907363227482  0.034660061063944425  0.4918128863047248  1.0000
  H   H56       1.0  0.8494092637626707  0.5346600592091303  0.008187113453702636  1.0000
  H   H57       1.0  0.25017230035887644  0.7623952674597845  0.45261151740087485  1.0000
  H   H58       1.0  0.24982769951302947  0.2623952671896753  0.0473884825723095  1.0000
  H   H59       1.0  0.7498276997581448  0.23760473308043376  0.5473884825456584  1.0000
  H   H60       1.0  0.7501723002307823  0.7376047333505429  0.9526115173740592  1.0000
  H   H61       1.0  0.27590798221730106  0.18754231874490385  0.29243123462666554  1.0000
  H   H62       1.0  0.2240920176546049  0.6875423190150131  0.20756876534651889  1.0000
  H   H63       1.0  0.7240920178997201  0.8124576796703911  0.7075687653198677  1.0000
  H   H64       1.0  0.7759079823255302  0.312457679400282  0.792431235242118  1.0000
  H   H65       1.0  0.3743151106765623  0.3957212738596297  0.3468944843691425  1.0000
  H   H66       1.0  0.12568488919534357  0.8957212741297388  0.15310551560404187  1.0000
  H   H67       1.0  0.6256848894404589  0.6042787245556652  0.6531055155773907  1.0000
  H   H68       1.0  0.8743151105484682  0.1042787264104794  0.8468944843423268  1.0000
  H   H69       1.0  0.48407847066333726  0.10869514141955777  0.5367158056406277  1.0000
  H   H70       1.0  0.015921529248962982  0.6086951416896669  0.9632841938517432  1.0000
  H   H71       1.0  0.515921529453684  0.8913048591206605  0.46328419430590556  1.0000
  H   H72       1.0  0.9840784708680582  0.39130485885055133  0.03671580609479005  1.0000
  C   C1        1.0  0.45154568681471396  0.5908247410471938  0.7302316407126611  1.0000
  C   C2        1.0  0.04845431333390948  0.09082474077708472  0.7697683594219777  1.0000
  C   C3        1.0  0.5484543133023072  0.4091752594930244  0.269768359233872  1.0000
  C   C4        1.0  0.9515456867831116  0.9091752597631335  0.23023164052455544  1.0000
  C   C5        1.0  0.40482864659089035  0.6747860540596852  0.7371967050696251  1.0000
  C   C6        1.0  0.09517135355773322  0.17478605378957598  0.7628032950650139  1.0000
  C   C7        1.0  0.5951713537624541  0.32521394648053314  0.2628032955191763  1.0000
  C   C8        1.0  0.9048286465592881  0.8252139467506422  0.23719670488151934  1.0000
  C   C9        1.0  0.41254278268598216  0.8728650789153111  0.8002326435164275  1.0000
  C   C10       1.0  0.08745721708943205  0.37286507864520185  0.699767356618047  1.0000
  C   C11       1.0  0.5874572170578297  0.12713492162490725  0.19976735642994126  1.0000
  C   C12       1.0  0.9125427826543798  0.6271349218950163  0.3002326433283217  1.0000
  C   C13       1.0  0.3108002499564888  0.7945087269896843  0.7648805187424574  1.0000
  C   C14       1.0  0.1891997499558113  0.2945087267195752  0.7351194807499132  1.0000
  C   C15       1.0  0.6891997501605325  0.20549127355053395  0.2351194812040757  1.0000
  C   C16       1.0  0.8108002501612098  0.705491273820643  0.2648805191966199  1.0000
  C   C17       1.0  0.2692513809913341  0.8984723570293051  0.6753056950352746  1.0000
  C   C18       1.0  0.23074861878407998  0.39847235888411914  0.8246943050991998  1.0000
  C   C19       1.0  0.7307486187524777  0.10152764138598996  0.32469430491109413  1.0000
  C   C20       1.0  0.7692513809597318  0.6015276416560991  0.17530569484716893  1.0000
  C   C21       1.0  0.18211062468421646  0.9085050908400845  0.5525978665226298  1.0000
  C   C22       1.0  0.3178893752280837  0.4085050905699753  0.9474021329697409  1.0000
  C   C23       1.0  0.8178893754328046  0.09149490970013383  0.44740213342390334  1.0000
  C   C24       1.0  0.6821106248889374  0.5914949099702429  0.05259786697679228  1.0000
  C   C25       1.0  0.21778222357383062  0.08871540807685897  0.5427003238295681  1.0000
  C   C26       1.0  0.28221777657479286  0.5887154083469681  0.9572996763050707  1.0000
  C   C27       1.0  0.7822177765431906  0.9112845924633592  0.45729967611696504  1.0000
  C   C28       1.0  0.7177822235422283  0.41128459219325014  0.042700323641462465  1.0000
  C   C29       1.0  0.2743093901108527  0.08205738389448287  0.6220199474826075  1.0000
  C   C30       1.0  0.22569060966456142  0.5820573841645921  0.8779800526518668  1.0000
  C   C31       1.0  0.7256906096329592  0.917942614520812  0.3779800524637612  1.0000
  C   C32       1.0  0.7743093900792505  0.41794261637562624  0.12201994729450182  1.0000
  C   C33       1.0  0.47022312426463425  0.9930112745505458  0.8548534931142738  1.0000
  C   C34       1.0  0.029776875883989324  0.49301127428043673  0.6451465070203651  1.0000
  C   C35       1.0  0.529776875852387  0.0069887259896723635  0.14514650683225933  1.0000
  C   C36       1.0  0.9702231240961458  0.5069887241348583  0.35485349356827184  1.0000
  C   C37       1.0  0.4823952728638166  0.21157179033855572  0.918393257530144  1.0000
  C   C38       1.0  0.017604727284806946  0.7115717906086649  0.5816067426044951  1.0000
  C   C39       1.0  0.5176047272532046  0.7884282102016625  0.08160674241638925  1.0000
  C   C40       1.0  0.982395272459005  0.2884282099315534  0.4183932573418737  1.0000
  C   C41       1.0  0.5167501716719333  0.9000155485497059  0.847082981475666  1.0000
  C   C42       1.0  0.9832498285533171  0.40001554827959684  0.6529170190863197  1.0000
  C   C43       1.0  0.4832498286814112  0.0999844519905123  0.15291701911313532  1.0000
  C   C44       1.0  0.016750171800027365  0.5999844522606214  0.3470829815024817  1.0000
  C   C45       1.0  0.5090868690329623  0.6984026679379542  0.7870642723334591  1.0000
  C   C46       1.0  0.9909131309559648  0.19840266766784512  0.7129357275862586  1.0000
  C   C47       1.0  0.49091313071084963  0.301597332602264  0.21293572761290971  1.0000
  C   C48       1.0  0.009086869161056301  0.8015973328723731  0.2870642723602746  1.0000
  C   C49       1.0  0.42633955133977713  0.8204146800675667  0.4612581270261302  1.0000
  C   C50       1.0  0.0736604485321287  0.3204146819223808  0.03874187294705408  1.0000
  C   C51       1.0  0.5736604490135673  0.17958531834772828  0.5387418735626711  1.0000
  C   C52       1.0  0.9263395512116831  0.6795853186178374  0.9612581269993146  1.0000
  C   C53       1.0  0.3688921016596868  0.6961875841817385  0.4313695308091043  1.0000
  C   C54       1.0  0.13110789821221908  0.19618758391162947  0.06863046916408005  1.0000
  C   C55       1.0  0.631107898084125  0.3038124163584797  0.5686304691372644  1.0000
  C   C56       1.0  0.8688921019048021  0.8038124166285888  0.9313695307824532  1.0000
  C   C57       1.0  0.3471960428690855  0.4758521130778246  0.3701258259406015  1.0000
  C   C58       1.0  0.1528039573760297  0.9758521133479336  0.1298741740327473  1.0000
  C   C59       1.0  0.6528039572479357  0.5241478874623937  0.6298741740059316  1.0000
  C   C60       1.0  0.8471960427409915  0.02414788719228451  0.870125825913786  1.0000
  C   C61       1.0  0.29212998184083616  0.35910127495033184  0.3393986696188001  1.0000
  C   C62       1.0  0.20787001840427907  0.8591012752204409  0.1606013303545487  1.0000
  C   C63       1.0  0.707870018276185  0.6408987255898864  0.660601330327733  1.0000
  C   C64       1.0  0.7921299817127421  0.1408987253197773  0.8393986695919844  1.0000
  C   C65       1.0  0.255749822407012  0.46151010501377027  0.36796781046023463  1.0000
  C   C66       1.0  0.24425017746489391  0.9615101052838795  0.13203218951294976  1.0000
  C   C67       1.0  0.7442501773367999  0.538489895526448  0.632032189486134  1.0000
  C   C68       1.0  0.7557498226521272  0.038489895256338884  0.8679678104335834  1.0000
  C   C69       1.0  0.27777341596708593  0.6812550344440396  0.4302778304234535  1.0000
  C   C70       1.0  0.22222658390481997  0.1812550341739304  0.06972216954973084  1.0000
  C   C71       1.0  0.7222265841499352  0.3187449660961787  0.5697221695230796  1.0000
  C   C72       1.0  0.7777734158389918  0.8187449663662879  0.9302778303966378  1.0000
  C   C73       1.0  0.33318808852147974  0.7944919847193014  0.4611122250689523  1.0000
  C   C74       1.0  0.16681191135042617  0.2944919844491923  0.038887774904232106  1.0000
  C   C75       1.0  0.6668119115955413  0.20550801582091682  0.5388877748775809  1.0000
  C   C76       1.0  0.8331880883933858  0.7055080160910259  0.9611122250421367  1.0000
  N   N1        1.0  0.3666523813069147  0.9433911651169663  0.807891894390491  1.0000
  N   N2        1.0  0.1333476188417088  0.4433911648468572  0.6921081057441478  1.0000
  N   N3        1.0  0.6333476188101065  0.056608833298328706  0.19210810555604207  1.0000
  N   N4        1.0  0.8666523812753124  0.5566088335684378  0.3078918942023854  1.0000
  N   N5        1.0  0.5636371467156437  0.7528367506485071  0.696661961475322  1.0000
  N   N6        1.0  0.9363628532732834  0.252836750378398  0.8033380384443956  1.0000
  N   N7        1.0  0.43636285340137754  0.24716324989171112  0.3033380384712111  1.0000
  N   N8        1.0  0.0636371464705284  0.7471632501618203  0.19666196150197324  1.0000
  N   N9        1.0  0.20136676366408238  0.34834475827767475  0.33742005401667047  1.0000
  N   N10       1.0  0.2986332365810328  0.8483447585477839  0.16257994595667835  1.0000
  N   N11       1.0  0.7986332364529387  0.6516552401376203  0.6625799459298627  1.0000
  N   N12       1.0  0.7013667635359883  0.15165523986751114  0.8374200539898549  1.0000
  O   O1        1.0  0.21279802956025895  0.7894940844595218  0.6336301453551447  1.0000
  O   O2        1.0  0.28720197021515526  0.28949408631433604  0.8663698547793298  1.0000
  O   O3        1.0  0.7872019701835529  0.21050591395577312  0.36636985459122406  1.0000
  O   O4        1.0  0.7127980295286566  0.7105059142258823  0.13363014516703897  1.0000
  O   O5        1.0  0.5380550689205659  0.29302707935161737  0.9665370872020388  1.0000
  O   O6        1.0  0.9619449310683612  0.7930270774968032  0.5334629127176788  1.0000
  O   O7        1.0  0.461944930823246  0.7069729211886009  0.03346291274432996  1.0000
  O   O8        1.0  0.03805506904865993  0.20697292091849176  0.4665370872288544  1.0000
  O   O9        1.0  0.44221102381844096  0.31563773118340493  0.9266372582841219  1.0000
  O   O10       1.0  0.057788976330182526  0.815637731453514  0.5733627418505169  1.0000
  O   O11       1.0  0.5577889762985802  0.6843622672318901  0.07336274166241129  1.0000
  O   O12       1.0  0.9422110234136293  0.18436226696178099  0.42663725809585173  1.0000
  O   O13       1.0  0.5726119414357472  0.30502341437545427  0.7715410050322269  1.0000
  O   O14       1.0  0.9273880587895033  0.8050234146455634  0.7284589955297588  1.0000
  O   O15       1.0  0.42738805854438794  0.6949765840398406  0.22845899555640992  1.0000
  O   O16       1.0  0.07261194156384129  0.1949765837697316  0.27154100505904255  1.0000
  O   O17       1.0  0.6216653664576458  0.7416955718672333  0.8561388714428921  1.0000
  O   O18       1.0  0.8783346337676047  0.24169557159712432  0.6438611291190937  1.0000
  O   O19       1.0  0.3783346332861662  0.2583044286729848  0.14386112850347674  1.0000
  O   O20       1.0  0.12166536658573979  0.7583044289430939  0.35613887146970763  1.0000
  O   O21       1.0  0.45773805232529413  0.7482128028841026  0.4319446849899877  1.0000
  O   O22       1.0  0.04226194754661185  0.24821280261399353  0.0680553149831966  1.0000
  O   O23       1.0  0.5422619474185179  0.25178719553119233  0.568055314956381  1.0000
  O   O24       1.0  0.9577380525704092  0.7517871958013015  0.9319446849633366  1.0000
  O   O25       1.0  0.4442263742639027  0.01802745159585904  0.5217068835815744  1.0000
  O   O26       1.0  0.05577362551151146  0.5180274518659681  0.9782931165529002  1.0000
  O   O27       1.0  0.5557736254799092  0.9819725489443593  0.4782931163647945  1.0000
  O   O28       1.0  0.9442263742323004  0.4819725486742501  0.02170688339346854  1.0000
  S   S1        1.0  0.5714722059796941  0.6088145347530002  0.7823787906971703  1.0000
  S   S2        1.0  0.928527794009233  0.10881453448289104  0.7176212092225471  1.0000
  S   S3        1.0  0.4285277937641177  0.3911854657872181  0.2176212092491983  1.0000
  S   S4        1.0  0.07147220610778818  0.8911854660573272  0.28237879072398603  1.0000
  Cl  Cl1       1.0  0.4370295580326547  0.36002153034195583  0.6488363929733554  1.0000
  Cl  Cl2       1.0  0.06297044211596875  0.8600215306120649  0.8511636071612835  1.0000
  Cl  Cl3       1.0  0.5629704420843664  0.6399784680733391  0.3511636069731778  1.0000
  Cl  Cl4       1.0  0.9370295580010526  0.1399784699281533  0.1488363927852497  1.0000
