data_image0
_chemical_formula_structural       H68C72N16O24S4Cl4
_chemical_formula_sum              "H68 C72 N16 O24 S4 Cl4"
_cell_length_a       12.858088602041686
_cell_length_b       5.32346454682969
_cell_length_c       28.847912801361968
_cell_angle_alpha    90.0
_cell_angle_beta     99.69590799843378
_cell_angle_gamma    90.0

_space_group_name_H-M_alt    "P 1"
_space_group_IT_number       1

loop_
  _space_group_symop_operation_xyz
  'x, y, z'

loop_
  _atom_site_type_symbol
  _atom_site_label
  _atom_site_symmetry_multiplicity
  _atom_site_fract_x
  _atom_site_fract_y
  _atom_site_fract_z
  _atom_site_occupancy
  H   H1        1.0  0.14826124921589226  0.6511282811236675  0.6327883153853004  1.0000
  H   H2        1.0  0.3517387511676862  0.15112828176513798  0.8672116847941106  1.0000
  H   H3        1.0  0.8517387511494666  0.3488717194718675  0.36721168484388195  1.0000
  H   H4        1.0  0.6482612491976727  0.848871718830397  0.13278831543507172  1.0000
  H   H5        1.0  0.15949055654216202  0.761018084061941  0.5786417454168663  1.0000
  H   H6        1.0  0.34050944370578773  0.2610180847034115  0.9213582544108779  1.0000
  H   H7        1.0  0.8405094436875681  0.23898191653359402  0.4213582544606492  1.0000
  H   H8        1.0  0.6594905565239425  0.7389819158921236  0.07864174546663766  1.0000
  H   H9        1.0  0.6087900856922102  0.4663121165103567  0.5618316350048069  1.0000
  H   H10       1.0  0.8912099139429533  0.9663121158688863  0.9381683649885425  1.0000
  H   H11       1.0  0.3912099137602739  0.5336878840851783  0.4381683648739514  1.0000
  H   H12       1.0  0.10879008642240552  0.03368788472664874  0.061831635240639754  1.0000
  H   H13       1.0  0.5277501974871425  0.5591398728808378  0.710762489404121  1.0000
  H   H14       1.0  0.9722498021480209  0.059139871643832345  0.7892375105892283  1.0000
  H   H15       1.0  0.4722498028782163  0.4408601277146972  0.2892375108250611  1.0000
  H   H16       1.0  0.027750197304463084  0.9408601270732269  0.21076248928952998  1.0000
  H   H17       1.0  0.8665607401068542  0.1994007043086559  0.6759162354299332  1.0000
  H   H18       1.0  0.6334392595283093  0.6994007055456614  0.8240837645634161  1.0000
  H   H19       1.0  0.13343925934562975  0.8005992944084032  0.32408376444882503  1.0000
  H   H20       1.0  0.366560740701421  0.30059929504987365  0.1759162353140993  1.0000
  H   H21       1.0  0.07152709483150013  0.36316230961871193  0.6908532057329247  1.0000
  H   H22       1.0  0.4284729046392034  0.8631623089772416  0.8091467940960622  1.0000
  H   H23       1.0  0.928472904620984  0.6368376909768231  0.30914679414583357  1.0000
  H   H24       1.0  0.5715270948132806  0.13683769161829354  0.19085320578269607  1.0000
  H   H25       1.0  0.060998281454943064  0.8488758458420088  0.7228103925444371  1.0000
  H   H26       1.0  0.43900171879300665  0.34887584648347936  0.7771896072833069  1.0000
  H   H27       1.0  0.9390017187747871  0.1511241547535261  0.2771896073330783  1.0000
  H   H28       1.0  0.5609982814367236  0.6511241541120557  0.2228103925942086  1.0000
  H   H29       1.0  0.7068564717717123  0.6382552753213069  0.7397905284879223  1.0000
  H   H30       1.0  0.7931435286406975  0.13825527596277729  0.7602094715041844  1.0000
  H   H31       1.0  0.29314352845801794  0.36174472339575225  0.26020947138959327  1.0000
  H   H32       1.0  0.20685647158903278  0.8617447246327578  0.2397905283733311  1.0000
  H   H33       1.0  0.6844248205612672  0.41367493304928227  0.6940868610720393  1.0000
  H   H34       1.0  0.8155751790738964  0.9136749324078118  0.8059131389213101  1.0000
  H   H35       1.0  0.315575178891217  0.5863250675462528  0.305913138806719  1.0000
  H   H36       1.0  0.18442482129146243  0.0863250681877232  0.1940868613078721  1.0000
  H   H37       1.0  0.7190181087292046  0.9031329987654771  0.6539189884394873  1.0000
  H   H38       1.0  0.780981891683205  0.4031329994069476  0.8460810115526193  1.0000
  H   H39       1.0  0.2809818915005256  0.09686699995158198  0.3460810114380282  1.0000
  H   H40       1.0  0.21901810868215388  0.5968670011885874  0.15391898867656295  1.0000
  H   H41       1.0  0.38912910814417473  0.23846767811312208  0.5994241954163678  1.0000
  H   H42       1.0  0.11087089210377485  0.7384676793501276  0.9005758044113761  1.0000
  H   H43       1.0  0.6108708920855555  0.7615323206039369  0.40057580446114754  1.0000
  H   H44       1.0  0.8891291081259554  0.26153232124540743  0.0994241954661393  1.0000
  H   H45       1.0  0.046838539217212934  0.37812592575614623  0.5352623062574928  1.0000
  H   H46       1.0  0.45316146038911925  0.8781259251146757  0.9647376939231608  1.0000
  H   H47       1.0  0.9531614603708999  0.6218740748393888  0.4647376939729322  1.0000
  H   H48       1.0  0.5468385390633648  0.12187407548085927  0.035262305955597505  1.0000
  H   H49       1.0  0.021352609712466643  0.1268627101878971  0.571045432742968  1.0000
  H   H50       1.0  0.478647389758237  0.6268627095464266  0.928954567086019  1.0000
  H   H51       1.0  0.9786473897400173  0.8731372904076379  0.4289545671357902  1.0000
  H   H52       1.0  0.5213526096942471  0.37313729104910837  0.07104543279273942  1.0000
  H   H53       1.0  0.7006425676086069  0.14371437684423372  0.4749518542673921  1.0000
  H   H54       1.0  0.7993574326029038  0.6437143762027633  0.02504814565989473  1.0000
  H   H55       1.0  0.29935743262112324  0.8562856237513012  0.5250481456101233  1.0000
  H   H56       1.0  0.20064256762682642  0.35628562251429585  0.9749518542176208  1.0000
  H   H57       1.0  0.5768080597266486  0.808078172054674  0.49348717770552086  1.0000
  H   H58       1.0  0.923191940484862  0.3080781708176686  0.0065128222217660315  1.0000
  H   H59       1.0  0.4231919405030815  0.19192182854086098  0.5065128221719946  1.0000
  H   H60       1.0  0.07680805974486812  0.6919218278993905  0.9934871776557495  1.0000
  H   H61       1.0  0.803717961677176  0.5055363356562047  0.5969489500153273  1.0000
  H   H62       1.0  0.6962820379579874  0.005536336297675149  0.9030510499780221  1.0000
  H   H63       1.0  0.1962820386881827  0.4944636649393303  0.40305105021385484  1.0000
  H   H64       1.0  0.3037179614944967  0.9944636642978598  0.09694894990073624  1.0000
  H   H65       1.0  0.9387910117595987  0.8178469193699858  0.58234797977742  1.0000
  H   H66       1.0  0.561208988652811  0.3178469181329803  0.9176520202146865  1.0000
  H   H67       1.0  0.061208988470131516  0.18215308122554918  0.41765202010009533  1.0000
  H   H68       1.0  0.438791011712548  0.6821530805840788  0.08234798001449573  1.0000
  C   C1        1.0  0.3921078897808831  0.7612222161624632  0.6778548324503858  1.0000
  C   C2        1.0  0.10789211046706662  0.2612222168039337  0.8221451673773584  1.0000
  C   C3        1.0  0.6078921104488471  0.2387777844330718  0.3221451674271298  1.0000
  C   C4        1.0  0.8921078897626636  0.7387777837916013  0.17785483250015707  1.0000
  C   C5        1.0  0.3509179740769802  0.954122249771507  0.6463621309735982  1.0000
  C   C6        1.0  0.1490820253937234  0.4541222485345015  0.8536378688553887  1.0000
  C   C7        1.0  0.64908202615275  0.04587775082402806  0.35363786890391735  1.0000
  C   C8        1.0  0.8509179740587606  0.5458777501825576  0.14636213102336956  1.0000
  C   C9        1.0  0.42005737878835525  0.08783193461454616  0.6232980878682653  1.0000
  C   C10       1.0  0.07994262145959445  0.5878319358515516  0.8767019119594788  1.0000
  C   C11       1.0  0.579942621441375  0.9121680659809888  0.3767019120092502  1.0000
  C   C12       1.0  0.9200573787701356  0.4121680647439834  0.1232980879180367  1.0000
  C   C13       1.0  0.5283356742176343  0.03847582118715907  0.6306013643581189  1.0000
  C   C14       1.0  0.9716643261947753  0.5384758205456887  0.8693986356339878  1.0000
  C   C15       1.0  0.47166432601209585  0.961524179408376  0.36939863551939656  1.0000
  C   C16       1.0  0.028335674034954884  0.4615241781713705  0.13060136424352778  1.0000
  C   C17       1.0  0.5985439877970289  0.18928094310312996  0.6060658544079549  1.0000
  C   C18       1.0  0.9014560126153807  0.6892809443401354  0.8939341455841516  1.0000
  C   C19       1.0  0.40145601243270135  0.8107190556139291  0.3939341454695605  1.0000
  C   C20       1.0  0.09854398774997808  0.31071905625539964  0.10606585464503057  1.0000
  C   C21       1.0  0.5698787744877142  0.8445844788574002  0.6631722534581443  1.0000
  C   C22       1.0  0.9301212259246954  0.3445844794988706  0.8368277465339622  1.0000
  C   C23       1.0  0.4301212257420159  0.15541551985965896  0.336827746419371  1.0000
  C   C24       1.0  0.0698787743050348  0.6554155210966645  0.16317225334355326  1.0000
  C   C25       1.0  0.4987146175810718  0.7073587485883692  0.6860068327507681  1.0000
  C   C26       1.0  0.0012853828025065433  0.20735874735136378  0.8139931674286427  1.0000
  C   C27       1.0  0.501285382784287  0.2926412520071658  0.3139931674784141  1.0000
  C   C28       1.0  0.9987146175628523  0.7926412513656954  0.18600683280053948  1.0000
  C   C29       1.0  0.7212597557874156  0.5969265488754766  0.7039145328792749  1.0000
  C   C30       1.0  0.7787402438477478  0.09692654951694703  0.7960854671140745  1.0000
  C   C31       1.0  0.2787402445779432  0.40307345172005843  0.2960854673499073  1.0000
  C   C32       1.0  0.22125975560473618  0.903073451078588  0.20391453276468374  1.0000
  C   C33       1.0  0.8356255252464915  0.5706563016013992  0.7028262674178193  1.0000
  C   C34       1.0  0.664374474388672  0.0706563022428697  0.79717373257553  1.0000
  C   C35       1.0  0.16437447498323873  0.4293436989941358  0.29717373245969614  1.0000
  C   C36       1.0  0.33562552506381205  0.9293436983526654  0.2028262673032283  1.0000
  C   C37       1.0  0.0010173638655954717  0.7065605033924788  0.7135194978343068  1.0000
  C   C38       1.0  0.4989826365179829  0.20656050403394924  0.7864805023451039  1.0000
  C   C39       1.0  0.9989826363641346  0.29343949720305623  0.28648050204320863  1.0000
  C   C40       1.0  0.5010173638473759  0.7934394965615857  0.21351949788407823  1.0000
  C   C41       1.0  0.0025396578840336886  0.467700747905376  0.6967046385254038  1.0000
  C   C42       1.0  0.4974603424995447  0.9677007491423816  0.8032953616540072  1.0000
  C   C43       1.0  0.9974603423456965  0.5322992508116831  0.30329536135211177  1.0000
  C   C44       1.0  0.5025396578658141  0.032299251453153495  0.19670463857517512  1.0000
  C   C45       1.0  0.8955821468772314  0.38047488476395  0.689488390865417  1.0000
  C   C46       1.0  0.6044178527579323  0.8804748841224797  0.8105116091279324  1.0000
  C   C47       1.0  0.10441785335249887  0.619525115831585  0.3105116090120985  1.0000
  C   C48       1.0  0.3955821466945519  0.11952511647305543  0.18948839075082582  1.0000
  C   C49       1.0  0.902301508510372  0.21299034304177816  0.515572198226437  1.0000
  C   C50       1.0  0.5976984911247915  0.7129903424003077  0.9844278017669124  1.0000
  C   C51       1.0  0.09769849107774066  0.7870096575537568  0.484427802003988  1.0000
  C   C52       1.0  0.4023015091049388  0.28700965819522734  0.015572198110603131  1.0000
  C   C53       1.0  0.8297485627631999  0.010007995644815262  0.5270650628515001  1.0000
  C   C54       1.0  0.6702514368719636  0.5100079950033448  0.9729349371418492  1.0000
  C   C55       1.0  0.1702514366892843  0.9899920049507197  0.4729349370272581  1.0000
  C   C56       1.0  0.3297485633577665  0.48999200371371426  0.027065062735666265  1.0000
  C   C57       1.0  0.8594969676292188  0.8278628985374913  0.5617321372792076  1.0000
  C   C58       1.0  0.6405030320059447  0.3278628973004858  0.9382678627141418  1.0000
  C   C59       1.0  0.14050303182326535  0.17213710205804375  0.4382678625995507  1.0000
  C   C60       1.0  0.3594969682237854  0.6721371014165733  0.06173213716337368  1.0000
  C   C61       1.0  0.7852936839625441  0.6509120046762765  0.5701874993300349  1.0000
  C   C62       1.0  0.7147063156726194  0.15091200531774704  0.9298125006633144  1.0000
  C   C63       1.0  0.21470631548994007  0.3490879940407825  0.42981250054872344  1.0000
  C   C64       1.0  0.2852936839154933  0.849087995277788  0.07018749956711047  1.0000
  C   C65       1.0  0.6575650821740819  0.820212100895896  0.5125419361085728  1.0000
  C   C66       1.0  0.8424349174610816  0.32021209965889064  0.9874580638847766  1.0000
  C   C67       1.0  0.34243491819127697  0.1797878996996389  0.48745806412060944  1.0000
  C   C68       1.0  0.15756508199140248  0.6797878990581685  0.01254193599398163  1.0000
  C   C69       1.0  0.726658930157425  0.004085895530750468  0.5019886750828018  1.0000
  C   C70       1.0  0.7733410702549848  0.50408589488928  0.9980113249093048  1.0000
  C   C71       1.0  0.2733410700723053  0.9959141050647846  0.4980113247947137  1.0000
  C   C72       1.0  0.22665893011037413  0.495914105706255  0.0019886753198773946  1.0000
  N   N1        1.0  0.14480407099568057  0.8072514003233546  0.6118568611295928  1.0000
  N   N2        1.0  0.35519592847502296  0.30725140096482506  0.8881431386993942  1.0000
  N   N3        1.0  0.8551959284568035  0.19274860027218044  0.3881431387491655  1.0000
  N   N4        1.0  0.6448040709774611  0.69274859963071  0.11185686117936416  1.0000
  N   N5        1.0  0.6739715565428781  0.7920344022035413  0.6717848255918091  1.0000
  N   N6        1.0  0.8260284430922854  0.2920344028450118  0.8282151744015402  1.0000
  N   N7        1.0  0.32602844290960603  0.20796559839199366  0.3282151742869492  1.0000
  N   N8        1.0  0.17397155649582732  0.7079655977505233  0.17178482582888477  1.0000
  N   N9        1.0  0.9959602401927884  0.2402730155800023  0.5431412343057493  1.0000
  N   N10       1.0  0.5040397602196212  0.7402730168170077  0.9568587656863573  1.0000
  N   N11       1.0  0.004039760036941767  0.7597269831370568  0.45685876557176613  1.0000
  N   N12       1.0  0.49596024001010897  0.25972698377852727  0.04314123419115821  1.0000
  N   N13       1.0  0.6863534641919463  0.6476570999337778  0.5461809052757888  1.0000
  N   N14       1.0  0.8136465362204632  0.14765709869677235  0.9538190947163179  1.0000
  N   N15       1.0  0.31364653603778386  0.3523429006617572  0.4538190946017267  1.0000
  N   N16       1.0  0.1863534640092669  0.8523429000202868  0.04618090516119767  1.0000
  O   O1        1.0  0.20359929112916775  0.24392558991931668  0.6034305051550244  1.0000
  O   O2        1.0  0.2964007091187819  0.7439255892778462  0.8965694946727197  1.0000
  O   O3        1.0  0.7964007091005625  0.7560744106762184  0.39656949472249114  1.0000
  O   O4        1.0  0.7035992911109481  0.2560744094392129  0.10343050520479576  1.0000
  O   O5        1.0  0.18420582181110312  0.07503609472479489  0.6823572063984665  1.0000
  O   O6        1.0  0.31579417857247527  0.5750360940833245  0.8176427937809444  1.0000
  O   O7        1.0  0.8157941785542558  0.9249639058707402  0.3176427938307158  1.0000
  O   O8        1.0  0.684205821657255  0.4249639046337347  0.1823572060965711  1.0000
  O   O9        1.0  0.696850767368469  0.16825261108076936  0.614751278356107  1.0000
  O   O10       1.0  0.8031492322666945  0.6682526123177748  0.8852487216372423  1.0000
  O   O11       1.0  0.30314923299688995  0.8317473876362897  0.3852487218730753  1.0000
  O   O12       1.0  0.19685076718578953  0.3317473882777602  0.11475127824151587  1.0000
  O   O13       1.0  0.5506212559747288  0.3508495536261816  0.574426896446322  1.0000
  O   O14       1.0  0.9493787436604346  0.8508495548631871  0.9255731035470273  1.0000
  O   O15       1.0  0.4493787434777552  0.6491504450908775  0.4255731034324361  1.0000
  O   O16       1.0  0.0506212559276781  0.14915044573234792  0.07442689668339782  1.0000
  O   O17       1.0  0.8996393446782636  0.77368668538477  0.7178641409252908  1.0000
  O   O18       1.0  0.6003606549568998  0.27368668414776454  0.7821358590680585  1.0000
  O   O19       1.0  0.10036065555146656  0.22631331521076498  0.2821358589522247  1.0000
  O   O20       1.0  0.3996393446312129  0.7263133145692946  0.21786414116236644  1.0000
  O   O21       1.0  0.8732500679774662  0.3544129003589586  0.48085555394161755  1.0000
  O   O22       1.0  0.6267499322340444  0.8544128997174882  0.01914444598566929  1.0000
  O   O23       1.0  0.126749932252264  0.6455871002365764  0.5191444459358979  1.0000
  O   O24       1.0  0.3732500679956857  0.1455870989995709  0.9808555538918462  1.0000
  S   S1        1.0  0.2165030303483603  0.03975878267585114  0.6372175467632407  1.0000
  S   S2        1.0  0.28349697003521807  0.5397587839128566  0.86278245341617  1.0000
  S   S3        1.0  0.7834969700169986  0.9602412160412079  0.36278245346594146  1.0000
  S   S4        1.0  0.716503030330141  0.46024121668267837  0.13721754681301218  1.0000
  Cl  Cl1       1.0  0.3112226432525882  0.5857551736410126  0.7071320580106323  1.0000
  Cl  Cl2       1.0  0.18877735699536155  0.0857551742824831  0.792867941817112  1.0000
  Cl  Cl3       1.0  0.6887773569771422  0.41424482507604643  0.2928679418668833  1.0000
  Cl  Cl4       1.0  0.8112226432343685  0.9142448263130519  0.20713205806040355  1.0000
