data_image0
_chemical_formula_structural       H22C34N8O12F6
_chemical_formula_sum              "H22 C34 N8 O12 F6"
_cell_length_a       7.6493915103302985
_cell_length_b       9.7445176034135
_cell_length_c       12.19614973916322
_cell_angle_alpha    96.28935269940239
_cell_angle_beta     107.28442099981265
_cell_angle_gamma    96.34718409286181

_space_group_name_H-M_alt    "P 1"
_space_group_IT_number       1

loop_
  _space_group_symop_operation_xyz
  'x, y, z'

loop_
  _atom_site_type_symbol
  _atom_site_label
  _atom_site_symmetry_multiplicity
  _atom_site_fract_x
  _atom_site_fract_y
  _atom_site_fract_z
  _atom_site_occupancy
  H   H1        1.0  0.2253577026739047  0.7512210229671857  0.7546600018525934  1.0000
  H   H2        1.0  0.7746422964569347  0.24877897668125212  0.2453399976548611  1.0000
  H   H3        1.0  0.3184367998811203  0.6436411515013905  0.9375656170432891  1.0000
  H   H4        1.0  0.6815631994557712  0.35635884919087196  0.06243438341428579  1.0000
  H   H5        1.0  0.6099332826911867  0.7331576928733061  0.09206091301236043  1.0000
  H   H6        1.0  0.39006671780457125  0.2668423067736383  0.9079390875715769  1.0000
  H   H7        1.0  0.8268436234679034  0.9361261992069937  0.07355808506406804  1.0000
  H   H8        1.0  0.1731563772419203  0.06387380148486786  0.9264419148317239  1.0000
  H   H9        1.0  0.4843630159530674  0.17109336331698627  0.5945945634661225  1.0000
  H   H10       1.0  0.5156369845466974  0.8289066363305044  0.4054054362986819  1.0000
  H   H11       1.0  0.12108845943482206  0.015848988907062985  0.4144712029517718  1.0000
  H   H12       1.0  0.8789115410649426  0.9841510107404278  0.5855287968130327  1.0000
  H   H13       1.0  0.013570566890533745  0.10595965128309512  0.2394699509525277  1.0000
  H   H14       1.0  0.9864294322362989  0.8940403483647964  0.7605300493740598  1.0000
  H   H15       1.0  0.042561375240879405  0.27766035565266767  0.10525443674285105  1.0000
  H   H16       1.0  0.9574386241000188  0.7223396450401409  0.8947455628955908  1.0000
  H   H17       1.0  0.5487220983329599  0.48957052300331694  0.3593073014920757  1.0000
  H   H18       1.0  0.45127790079387264  0.5104294766445746  0.640692698834512  1.0000
  H   H19       1.0  0.5220397192399341  0.3200859968005015  0.49210568179508424  1.0000
  H   H20       1.0  0.47796028146588265  0.6799140038908137  0.5078943189198406  1.0000
  H   H21       1.0  0.9197885137827165  0.25208306018326443  0.8517451594014032  1.0000
  H   H22       1.0  0.08021148671704822  0.7479169394642262  0.1482548403634013  1.0000
  C   C1        1.0  0.47207841114610954  0.9061674160550337  0.8158957346546141  1.0000
  C   C2        1.0  0.5279215893536553  0.09383258359245704  0.18410426511019054  1.0000
  C   C3        1.0  0.3523906121091778  0.7914229067601883  0.8243638157133806  1.0000
  C   C4        1.0  0.6476093870176548  0.20857709288770326  0.17563618461320696  1.0000
  C   C5        1.0  0.4072660271817943  0.7326774247318607  0.9258650247505734  1.0000
  C   C6        1.0  0.5927339719450384  0.26732257491603095  0.07413497557601421  1.0000
  C   C7        1.0  0.5753720185083323  0.784187881425591  0.015106918688614813  1.0000
  C   C8        1.0  0.4246279821974845  0.21581211926572413  0.9848930820263101  1.0000
  C   C9        1.0  0.6952704828422509  0.8975410945828335  0.0067578282018014415  1.0000
  C   C10       1.0  0.3047295178675728  0.10245890610902798  0.9932421716939904  1.0000
  C   C11       1.0  0.6382789270463698  0.9566666184272283  0.9054753224896095  1.0000
  C   C12       1.0  0.361721073659447  0.04333338226408684  0.09452467822531535  1.0000
  C   C13       1.0  0.3286760677529734  0.9839475154772098  0.6220050998634038  1.0000
  C   C14       1.0  0.6713239315879247  0.016052485215598863  0.37799489977503825  1.0000
  C   C15       1.0  0.3623115157340156  0.09281821082690213  0.5547594625288613  1.0000
  C   C16       1.0  0.6376884833968238  0.9071817888215357  0.4452405369785932  1.0000
  C   C17       1.0  0.24319545894701133  0.09610658373599618  0.44851050708872614  1.0000
  C   C18       1.0  0.7568045417628123  0.9038934169558652  0.5514894928070658  1.0000
  C   C19       1.0  0.26419582347383147  0.2003934039455446  0.37497054391173995  1.0000
  C   C20       1.0  0.7358041772319852  0.7996065967457706  0.625029456803185  1.0000
  C   C21       1.0  0.13001485163960028  0.19069881974307779  0.2653003856755831  1.0000
  C   C22       1.0  0.8699851474872323  0.8093011799048138  0.7346996146510043  1.0000
  C   C23       1.0  0.14499574190296  0.28604683789222235  0.19045127038578666  1.0000
  C   C24       1.0  0.8550042585968048  0.7139531617552684  0.8095487293790178  1.0000
  C   C25       1.0  0.29668895015641333  0.3923181181866941  0.22652534947595335  1.0000
  C   C26       1.0  0.7033110489704192  0.6076818814611975  0.7734746508506343  1.0000
  C   C27       1.0  0.4316507686439308  0.4060250297833002  0.3350972283052653  1.0000
  C   C28       1.0  0.5683492318518271  0.5939749698636442  0.6649027722786722  1.0000
  C   C29       1.0  0.41496516592924976  0.31019425292226893  0.40850611142035126  1.0000
  C   C30       1.0  0.5850348332015898  0.6898057467261689  0.5914938880871035  1.0000
  C   C31       1.0  0.026509972029187694  0.2787921194267597  0.7267722105467397  1.0000
  C   C32       1.0  0.973490027097645  0.7212078802211319  0.27322778977984785  1.0000
  C   C33       1.0  0.03556047677750899  0.38495296655263644  0.6414284139203752  1.0000
  C   C34       1.0  0.9644395223533305  0.6150470330958014  0.35857158558707936  1.0000
  N   N1        1.0  0.4677377987355399  0.992549704749021  0.7324630143642238  1.0000
  N   N2        1.0  0.5322622019742838  0.007450295942840508  0.2675369855315682  1.0000
  N   N3        1.0  0.6210950777393325  0.09166814402469456  0.7653126167571129  1.0000
  N   N4        1.0  0.3789049227604323  0.908331855622796  0.23468738300769157  1.0000
  N   N5        1.0  0.7207951928317591  0.06941595723911076  0.8678672736379386  1.0000
  N   N6        1.0  0.2792048076639988  0.9305840424078334  0.13213272694599884  1.0000
  N   N7        1.0  0.32030846277750263  0.49031907996284163  0.14742357587521787  1.0000
  N   N8        1.0  0.6796915377222621  0.509680919684649  0.8525764238895867  1.0000
  O   O1        1.0  0.8772468520012996  0.14590144266696584  0.9248121625726888  1.0000
  O   O2        1.0  0.12275314712553297  0.8540985569809256  0.07518783775389862  1.0000
  O   O3        1.0  0.1987698859736026  0.8879080868441044  0.5946029524078194  1.0000
  O   O4        1.0  0.8012301133672957  0.11209191384870448  0.40539704723062264  1.0000
  O   O5        1.0  0.4511546669229592  0.5887597254295406  0.18530346277833362  1.0000
  O   O6        1.0  0.5488453322078803  0.41124027421889736  0.8146965367291209  1.0000
  O   O7        1.0  0.2110087772101532  0.46934497815168713  0.047058243078777505  1.0000
  O   O8        1.0  0.7889912232856047  0.5306550214952572  0.95294175750516  1.0000
  O   O9        1.0  0.9394887807262736  0.3248949915839913  0.7978043765498452  1.0000
  O   O10       1.0  0.06051121977349115  0.6751050080634993  0.20219562321495943  1.0000
  O   O11       1.0  0.0931646638275066  0.17063236131173073  0.7223342696312294  1.0000
  O   O12       1.0  0.9068353366682514  0.8293676383352137  0.277665730952708  1.0000
  F   F1        1.0  0.11477705015273675  0.5147585664652565  0.7008956674010577  1.0000
  F   F2        1.0  0.885222950347028  0.485241433182234  0.29910433236374684  1.0000
  F   F3        1.0  0.13535952449358227  0.3479530646926033  0.5716832870224388  1.0000
  F   F4        1.0  0.8646404748433092  0.6520469359996591  0.42831671343513616  1.0000
  F   F5        1.0  0.8619986016789806  0.3957766771142201  0.573002525107764  1.0000
  F   F6        1.0  0.13800139903084294  0.6042233235776413  0.42699747478802796  1.0000
