data_image0
_chemical_formula_structural       H96C96N8O8Br8
_chemical_formula_sum              "H96 C96 N8 O8 Br8"
_cell_length_a       9.85134442039623
_cell_length_b       15.885435194590201
_cell_length_c       14.218552001755665
_cell_angle_alpha    90.0
_cell_angle_beta     107.747370416279
_cell_angle_gamma    90.0

_space_group_name_H-M_alt    "P 1"
_space_group_IT_number       1

loop_
  _space_group_symop_operation_xyz
  'x, y, z'

loop_
  _atom_site_type_symbol
  _atom_site_label
  _atom_site_symmetry_multiplicity
  _atom_site_fract_x
  _atom_site_fract_y
  _atom_site_fract_z
  _atom_site_occupancy
  H   H1        1.0  0.4150132782086927  0.58044787486465  0.644659175661084  1.0000
  H   H2        1.0  0.08498672202196753  0.08044787469437456  0.8553408247902994  1.0000
  H   H3        1.0  0.584986721084341  0.41955212547590087  0.35534082471949174  1.0000
  H   H4        1.0  0.915013278285787  0.9195521256461763  0.14465917558943908  1.0000
  H   H5        1.0  0.7637851028371011  0.6633056445056256  0.7690454053362443  1.0000
  H   H6        1.0  0.7362148974615148  0.16330564496485755  0.7309545948641388  1.0000
  H   H7        1.0  0.2362148974706536  0.3366943552054179  0.23095459504349414  1.0000
  H   H8        1.0  0.26378510284623985  0.8366943553756934  0.2690454055155996  1.0000
  H   H9        1.0  0.37952536932994246  0.5485900255957584  0.79487775163316  1.0000
  H   H10       1.0  0.12047463057468565  0.04859002542548298  0.7051222480797745  1.0000
  H   H11       1.0  0.62047463065178  0.4514099747447925  0.20512224800812953  1.0000
  H   H12       1.0  0.8795253697330689  0.9514099749150678  0.294877752299964  1.0000
  H   H13       1.0  0.45797135456007126  0.5735001451582844  0.9737000346801713  1.0000
  H   H14       1.0  0.04202864534455668  0.07350014498800896  0.526299965032763  1.0000
  H   H15       1.0  0.5420286457476832  0.42649985518226646  0.026299965699567066  1.0000
  H   H16       1.0  0.9579713546371657  0.9264998553525419  0.47370003460852655  1.0000
  H   H17       1.0  0.639172661886375  0.6260501168634527  0.12473250241025352  1.0000
  H   H18       1.0  0.860827338172442  0.12605011669317726  0.37526749715939106  1.0000
  H   H19       1.0  0.36082733809534745  0.3739498834770982  0.8752674972310359  1.0000
  H   H20       1.0  0.13917266180928062  0.8739498836473736  0.6247325024818985  1.0000
  H   H21       1.0  0.026022306832321644  0.7406776978956747  0.1021302098187798  1.0000
  H   H22       1.0  0.4739776931585396  0.2406776977253993  0.39786979000186495  1.0000
  H   H23       1.0  0.9739776931494009  0.25932230244487614  0.8978697898225098  1.0000
  H   H24       1.0  0.5260223071492152  0.7593223019856441  0.6021302103778736  1.0000
  H   H25       1.0  0.9463655457252731  0.7171141760018915  0.9214072732429681  1.0000
  H   H26       1.0  0.553634453558622  0.2171141758316161  0.5785927269582526  1.0000
  H   H27       1.0  0.05363445324172842  0.2828858243386593  0.07859272639915878  1.0000
  H   H28       1.0  0.44636554573441195  0.7828858245089347  0.42140727342232326  1.0000
  H   H29       1.0  0.19151287587806096  0.6726508577894614  0.5192158291027439  1.0000
  H   H30       1.0  0.30848712402656703  0.17265085761918605  0.9807841706101905  1.0000
  H   H31       1.0  0.8084871241036615  0.3273491425510894  0.48078417053854555  1.0000
  H   H32       1.0  0.6915128759551554  0.8273491420918573  0.019215829031099006  1.0000
  H   H33       1.0  0.07045278554899874  0.5879033199657281  0.47415077951483803  1.0000
  H   H34       1.0  0.4295472147678947  0.08790331979545257  0.02584922104425571  1.0000
  H   H35       1.0  0.9295472147587559  0.4120966797453154  0.5258492208649005  1.0000
  H   H36       1.0  0.57045278553986  0.9120966799155908  0.9741507793354828  1.0000
  H   H37       1.0  0.20845222202831998  0.6140686264183677  0.35937153966734886  1.0000
  H   H38       1.0  0.2915477779625413  0.1140686268775997  0.14062846015329594  1.0000
  H   H39       1.0  0.7915477769386816  0.38593137329267574  0.6406284599747778  1.0000
  H   H40       1.0  0.7084522220191812  0.8859313734629511  0.8593715394879936  1.0000
  H   H41       1.0  0.37132504830568336  0.6073670813428979  0.456835618106562  1.0000
  H   H42       1.0  0.1286749516851779  0.10736708117262247  0.043164381714082774  1.0000
  H   H43       1.0  0.6286749516760392  0.39263291899765296  0.5431643815347275  1.0000
  H   H44       1.0  0.8713250486225769  0.8926329191679284  0.9568356186656557  1.0000
  H   H45       1.0  0.43732973808846726  0.4637708303080615  0.5413120612108653  1.0000
  H   H46       1.0  0.06267026181616096  0.9637708304783369  0.9586879385020693  1.0000
  H   H47       1.0  0.5626702618932552  0.5362291700324894  0.45868793843042427  1.0000
  H   H48       1.0  0.9373297384915938  0.036229169862213945  0.04131206187766929  1.0000
  H   H49       1.0  0.31888761188517734  0.3786020053166791  0.4931534311477922  1.0000
  H   H50       1.0  0.18111238810568392  0.8786020054869546  0.006846568672852562  1.0000
  H   H51       1.0  0.6811123880965452  0.6213979943943644  0.5068465684934974  1.0000
  H   H52       1.0  0.8188876122020706  0.12139799485359637  0.993153431706886  1.0000
  H   H53       1.0  0.1323972297899138  0.44614751142691816  0.5524774707001173  1.0000
  H   H54       1.0  0.3676027701147143  0.9461475115971937  0.9475225290128171  1.0000
  H   H55       1.0  0.8676027701918086  0.5538524889136327  0.4475225289411721  1.0000
  H   H56       1.0  0.6323972291783195  0.053852488743357255  0.05247747136775869  1.0000
  H   H57       1.0  0.2930339720699631  0.4360830701294933  0.651835745923421  1.0000
  H   H58       1.0  0.20696602783466503  0.9360830696702613  0.8481642537895135  1.0000
  H   H59       1.0  0.7069660279117593  0.5639169302110576  0.34816425371786863  1.0000
  H   H60       1.0  0.7930339711323365  0.06391693004078211  0.15183574585261322  1.0000
  H   H61       1.0  0.19384591046653626  0.57463675361621  0.6452872230846342  1.0000
  H   H62       1.0  0.306154089764124  0.07463675344593454  0.8547127773667493  1.0000
  H   H63       1.0  0.8061540898412184  0.4253632467243409  0.35471277729510436  1.0000
  H   H64       1.0  0.6938459105436305  0.9253632462651089  0.1452872230129892  1.0000
  H   H65       1.0  0.32020406796481155  0.4764599784195747  0.36837532603250106  1.0000
  H   H66       1.0  0.17979593235208188  0.9764599785898501  0.13162467452659268  1.0000
  H   H67       1.0  0.6797959323429431  0.5235400212914686  0.6316246743472375  1.0000
  H   H68       1.0  0.8202040669409518  0.023540021750700715  0.8683753258539831  1.0000
  H   H69       1.0  0.88480522700045  0.5526546507828599  0.6303953082231147  1.0000
  H   H70       1.0  0.6151947722834452  0.05265465124209195  0.8696046919781059  1.0000
  H   H71       1.0  0.11519477298127265  0.4473453489281835  0.3696046914181748  1.0000
  H   H72       1.0  0.3848052270095885  0.9473453490984589  0.13039530840246993  1.0000
  H   H73       1.0  0.13111708750266146  0.7119597242039398  0.759492095323896  1.0000
  H   H74       1.0  0.3688829124019667  0.21195972466317192  0.7405079043890386  1.0000
  H   H75       1.0  0.868882912479061  0.2880402755071035  0.24050790431739352  1.0000
  H   H76       1.0  0.6311170875797558  0.7880402756773789  0.25949209525225103  1.0000
  H   H77       1.0  0.9479191097852028  0.46746032129663445  0.7715399424526529  1.0000
  H   H78       1.0  0.5520808905134131  0.9674603214669099  0.7284600577477305  1.0000
  H   H79       1.0  0.0520808905225519  0.532539678414409  0.22846005792708565  1.0000
  H   H80       1.0  0.4479191097943415  0.032539678244133535  0.2715399426320081  1.0000
  H   H81       1.0  0.06637563797139459  0.46014259228411186  0.9508125384425232  1.0000
  H   H82       1.0  0.43362436193323356  0.9601425924543873  0.5491874612704112  1.0000
  H   H83       1.0  0.9336243609956071  0.5398574074269314  0.04918746119960354  1.0000
  H   H84       1.0  0.566375638048489  0.03985740725665612  0.4508125383708783  1.0000
  H   H85       1.0  0.23009949632745463  0.521819184583809  0.10443585764029167  1.0000
  H   H86       1.0  0.2699005029747179  0.02181918441353356  0.3955641429196393  1.0000
  H   H87       1.0  0.7699005029655791  0.4781808157567419  0.8955641427402841  1.0000
  H   H88       1.0  0.7300994963183158  0.9781808152975099  0.6044358574609364  1.0000
  H   H89       1.0  0.3987384550667821  0.7723058757734267  0.09645094145467234  1.0000
  H   H90       1.0  0.10126154492407911  0.2723058756031512  0.40354905836597244  1.0000
  H   H91       1.0  0.6012615449149403  0.22769412393761673  0.9035490581866172  1.0000
  H   H92       1.0  0.8987384550576435  0.7276941241078921  0.5964509412753171  1.0000
  H   H93       1.0  0.2820266823871196  0.7785550895207345  0.9159933999530622  1.0000
  H   H94       1.0  0.21797331751750856  0.27855508935045903  0.5840065997598723  1.0000
  H   H95       1.0  0.7179733179206351  0.2214449108198164  0.08400660042667642  1.0000
  H   H96       1.0  0.7820266824642139  0.7214449109900918  0.41599339988141715  1.0000
  C   C1        1.0  0.6985418140141233  0.6428539844774105  0.8145340490191398  1.0000
  C   C2        1.0  0.8014581862844926  0.14285398430713508  0.6854659511812434  1.0000
  C   C3        1.0  0.3014581859675992  0.3571460158631403  0.18546595062214968  1.0000
  C   C4        1.0  0.19854181402326204  0.8571460154039083  0.3145340491984951  1.0000
  C   C5        1.0  0.5680905465962252  0.6045659689116091  0.770340298545461  1.0000
  C   C6        1.0  0.9319094537023908  0.10456596874133363  0.7296597016549221  1.0000
  C   C7        1.0  0.43190945371152956  0.3954340314289418  0.2296597018342774  1.0000
  C   C8        1.0  0.0680905466053639  0.8954340309697099  0.27034029872481635  1.0000
  C   C9        1.0  0.481849071347506  0.5788915290864481  0.8294295489515287  1.0000
  C   C10       1.0  0.01815092855712207  0.07889152891617268  0.6705704507614058  1.0000
  C   C11       1.0  0.5181509286342164  0.4211084712541028  0.1705704506897608  1.0000
  C   C12       1.0  0.9818490714246003  0.9211084707948707  0.32942954887988374  1.0000
  C   C13       1.0  0.5254777804705947  0.593157941509142  0.92954135389198  1.0000
  C   C14       1.0  0.9745222198280212  0.09315794133886654  0.5704586463084032  1.0000
  C   C15       1.0  0.4745222195111277  0.4068420582019014  0.07045864574930945  1.0000
  C   C16       1.0  0.0254777804797335  0.9068420583721769  0.42954135407133526  1.0000
  C   C17       1.0  0.6576628806225419  0.6329910478892233  0.9765910120795483  1.0000
  C   C18       1.0  0.8423371186613531  0.1329910477189479  0.5234089881216722  1.0000
  C   C19       1.0  0.3423371183444597  0.36700895245132753  0.0234089875625785  1.0000
  C   C20       1.0  0.15766288063168066  0.8670089526216029  0.4765910122589035  1.0000
  C   C21       1.0  0.705365691978263  0.6466348289594335  0.08004204365840824  1.0000
  C   C22       1.0  0.794634308406586  0.1466348294186655  0.4199579566496853  1.0000
  C   C23       1.0  0.2946343083294916  0.35336517075160995  0.9199579567213302  1.0000
  C   C24       1.0  0.20536569190116866  0.8533651709218854  0.5800420437300532  1.0000
  C   C25       1.0  0.8359652648423893  0.6839596779633764  0.12273793578610434  1.0000
  C   C26       1.0  0.66403473554246  0.183959677793101  0.37726206452198924  1.0000
  C   C27       1.0  0.16403473546536548  0.31604032237717444  0.8772620645936342  1.0000
  C   C28       1.0  0.3359652647652948  0.8160403219179424  0.6227379358577493  1.0000
  C   C29       1.0  0.9239351867311175  0.7105553427861996  0.06628050078351246  1.0000
  C   C30       1.0  0.5760648126390107  0.21055534261592418  0.43371949952541833  1.0000
  C   C31       1.0  0.07606481357663711  0.2894446569248438  0.9337194995962261  1.0000
  C   C32       1.0  0.423935186327991  0.7894446570951191  0.5662805001167084  1.0000
  C   C33       1.0  0.8784846987833717  0.6976864048253675  0.9653849158297404  1.0000
  C   C34       1.0  0.6215153015152441  0.19768640465509207  0.5346150843706428  1.0000
  C   C35       1.0  0.12151530152438289  0.3023135948856759  0.034615084549998  1.0000
  C   C36       1.0  0.37848469879251057  0.8023135950559513  0.46538491600909576  1.0000
  C   C37       1.0  0.7458828545477381  0.6580846997229327  0.91752090414067  1.0000
  C   C38       1.0  0.7541171457508778  0.15808469955265728  0.5824790960597133  1.0000
  C   C39       1.0  0.25411714576001654  0.34191530061761816  0.0824790962390685  1.0000
  C   C40       1.0  0.24588285455687686  0.8419153007878936  0.41752090432002525  1.0000
  C   C41       1.0  0.1842410482028548  0.6048058502842829  0.504388702685515  1.0000
  C   C42       1.0  0.31575895101308454  0.10480585011400748  0.9956112977667056  1.0000
  C   C43       1.0  0.8157589510901789  0.3951941500562679  0.4956112976950608  1.0000
  C   C44       1.0  0.6842410482799491  0.8951941502265434  0.004388702613870061  1.0000
  C   C45       1.0  0.2612514723539611  0.5831134895916812  0.4299813630766474  1.0000
  C   C46       1.0  0.23874852763690008  0.08311349005091326  0.07001863674399737  1.0000
  C   C47       1.0  0.7387485279537935  0.4168865101193622  0.5700186373030911  1.0000
  C   C48       1.0  0.7612514723448224  0.9168865102896376  0.9299813628972922  1.0000
  C   C49       1.0  0.32430533817063784  0.4463655111201956  0.5084856411965293  1.0000
  C   C50       1.0  0.1756946617339902  0.9463655106609636  0.9915143585164052  1.0000
  C   C51       1.0  0.6756946618110846  0.5536344892203552  0.49151435844476027  1.0000
  C   C52       1.0  0.8243053375590436  0.05363448905007977  0.008485641864170562  1.0000
  C   C53       1.0  0.24386728677384809  0.46796617334925783  0.581149553523195  1.0000
  C   C54       1.0  0.2561327134568121  0.9679661728900258  0.9188504469281884  1.0000
  C   C55       1.0  0.7561327135339064  0.532033826991293  0.4188504468565435  1.0000
  C   C56       1.0  0.7438672868509425  0.03203382682101757  0.08114955345155007  1.0000
  C   C57       1.0  0.11818773516792591  0.657070803043194  0.8019076841588498  1.0000
  C   C58       1.0  0.3818122647367022  0.15707080287291855  0.6980923155540846  1.0000
  C   C59       1.0  0.8818122651398287  0.3429291966678494  0.1980923162208887  1.0000
  C   C60       1.0  0.6181877352450202  0.8429291968381248  0.3019076840872049  1.0000
  C   C61       1.0  0.033373712895727534  0.5907103655048509  0.7541344563341614  1.0000
  C   C62       1.0  0.4666262870089005  0.09071036533457547  0.745865543378773  1.0000
  C   C63       1.0  0.9666262870859949  0.40928963483569997  0.2458655433071281  1.0000
  C   C64       1.0  0.5333737119581011  0.9092896343764679  0.25413445626335374  1.0000
  C   C65       1.0  0.013855391212613083  0.5196438208259582  0.8095925707169547  1.0000
  C   C66       1.0  0.4861446090180473  0.019643820655682705  0.6904074297344288  1.0000
  C   C67       1.0  0.9861446090951416  0.48035617888508525  0.19040742966278387  1.0000
  C   C68       1.0  0.5138553912897074  0.9803561790553607  0.30959257064530965  1.0000
  C   C69       1.0  0.08085651133118306  0.5154521396296711  0.9096240444309256  1.0000
  C   C70       1.0  0.4191434888994771  0.015452139459395671  0.5903759560204577  1.0000
  C   C71       1.0  0.9191434889765714  0.48454786071087974  0.0903759559488128  1.0000
  C   C72       1.0  0.5808565114082774  0.9845478602516478  0.4096240443592808  1.0000
  C   C73       1.0  0.16920185596666368  0.5820011291317035  0.9602558787071349  1.0000
  C   C74       1.0  0.3307981442639966  0.08200112896142812  0.5397441217442486  1.0000
  C   C75       1.0  0.830798144341091  0.41799887120884727  0.03974412167260359  1.0000
  C   C76       1.0  0.669201856043758  0.9179988707496153  0.46025587863548995  1.0000
  C   C77       1.0  0.24011815912240453  0.5780197940769649  0.06317291645659523  1.0000
  C   C78       1.0  0.25988184086845667  0.07801979453619699  0.4368270833640495  1.0000
  C   C79       1.0  0.759881840859318  0.42198020563407845  0.9368270831846942  1.0000
  C   C80       1.0  0.7401181594392979  0.9219802058043538  0.563172917015689  1.0000
  C   C81       1.0  0.32069945516369847  0.645597908044254  0.10928147339873046  1.0000
  C   C82       1.0  0.179300545153195  0.1455979078739785  0.3907185271603633  1.0000
  C   C83       1.0  0.6793005451440561  0.35440209229629693  0.890718526981008  1.0000
  C   C84       1.0  0.8206994551545597  0.854402091837065  0.6092814732193751  1.0000
  C   C85       1.0  0.33557296065078446  0.7192710681222704  0.05775237334862265  1.0000
  C   C86       1.0  0.16442703966610897  0.2192710679519949  0.44224762721047106  1.0000
  C   C87       1.0  0.6644270396569701  0.280728931588773  0.9422476270311158  1.0000
  C   C88       1.0  0.8355729606416457  0.7807289317590485  0.5577523731692674  1.0000
  C   C89       1.0  0.2693014056438465  0.7227650454241262  0.9571545769594286  1.0000
  C   C90       1.0  0.23069859458681372  0.2227650452538508  0.5428454234919547  1.0000
  C   C91       1.0  0.7306985936491872  0.2772349549164247  0.04284542342114708  1.0000
  C   C92       1.0  0.7693014057209409  0.7772349550867  0.4571545768877837  1.0000
  C   C93       1.0  0.18588472667385453  0.6548057609112508  0.905066577963719  1.0000
  C   C94       1.0  0.3141152735568058  0.15480576074097535  0.5949334224876645  1.0000
  C   C95       1.0  0.8141152736339001  0.34519423942930005  0.0949334224160195  1.0000
  C   C96       1.0  0.6858847267509489  0.8451942395995755  0.405066577892074  1.0000
  N   N1        1.0  0.2500763579836255  0.559660466401805  0.5977276189427488  1.0000
  N   N2        1.0  0.24992364192100258  0.05966046623152957  0.9022723807701855  1.0000
  N   N3        1.0  0.7499236423241292  0.44033953393874586  0.4022723814369896  1.0000
  N   N4        1.0  0.7500763580607198  0.9403395334795139  0.09772761887110397  1.0000
  N   N5        1.0  0.2609338757534891  0.491324000532133  0.41450745535199307  1.0000
  N   N6        1.0  0.23906612322265125  0.9913240007024083  0.08549254446948895  1.0000
  N   N7        1.0  0.7390661232135125  0.5086759991789104  0.5854925442901338  1.0000
  N   N8        1.0  0.7609338760703825  0.008675999008634992  0.914507455911087  1.0000
  O   O1        1.0  0.5251126439431114  0.5922376765103601  0.6711666780811072  1.0000
  O   O2        1.0  0.9748873563555044  0.09223767634008462  0.828833322119276  1.0000
  O   O3        1.0  0.4748873563646433  0.4077623232006834  0.32883332229863127  1.0000
  O   O4        1.0  0.025112643952250113  0.9077623233709589  0.17116667826046245  1.0000
  O   O5        1.0  0.9734850819398863  0.5938619039667653  0.6546924384233441  1.0000
  O   O6        1.0  0.5265149173440089  0.09386190442599734  0.8453075617778764  1.0000
  O   O7        1.0  0.02651491735314764  0.40613809574427806  0.3453075619572316  1.0000
  O   O8        1.0  0.47348508296374575  0.9061380959145535  0.15469243860186213  1.0000
  Br  Br1       1.0  0.9048996731805466  0.6970061168843937  0.2628110194345105  1.0000
  Br  Br2       1.0  0.5951003272043023  0.1970061173436258  0.23718898087358306  1.0000
  Br  Br3       1.0  0.09510032712720795  0.30299388282664963  0.737188980945228  1.0000
  Br  Br4       1.0  0.4048996731034524  0.8029938829969251  0.7628110195061555  1.0000
  Br  Br5       1.0  0.41816975222577213  0.6401336989157839  0.24790815346727524  1.0000
  Br  Br6       1.0  0.08183024809112126  0.1401336987455084  0.2520918470918185  1.0000
  Br  Br7       1.0  0.5818302480819826  0.35986630079525955  0.7520918469124633  1.0000
  Br  Br8       1.0  0.9181697522166334  0.859866300965535  0.74790815328792  1.0000
