data_image0
_chemical_formula_structural       H36C76N8O8F16Br4I8
_chemical_formula_sum              "H36 C76 N8 O8 F16 Br4 I8"
_cell_length_a       4.421300711089789
_cell_length_b       13.272066012800268
_cell_length_c       34.900667493866976
_cell_angle_alpha    90.0
_cell_angle_beta     90.0
_cell_angle_gamma    90.0

_space_group_name_H-M_alt    "P 1"
_space_group_IT_number       1

loop_
  _space_group_symop_operation_xyz
  'x, y, z'

loop_
  _atom_site_type_symbol
  _atom_site_label
  _atom_site_symmetry_multiplicity
  _atom_site_fract_x
  _atom_site_fract_y
  _atom_site_fract_z
  _atom_site_occupancy
  H   H1        1.0  0.020965789494366175  0.3088847068757941  0.6306336130639246  1.0000
  H   H2        1.0  0.47903421151327974  0.6911152929132163  0.13063361326258816  1.0000
  H   H3        1.0  0.9790342102591477  0.8088847071470303  0.8693663869131399  1.0000
  H   H4        1.0  0.5209657882402342  0.19111529264198  0.36936638682527584  1.0000
  H   H5        1.0  0.22262865032706217  0.4585842222401545  0.5398713647328105  1.0000
  H   H6        1.0  0.2773713484188059  0.541415778302318  0.039871364644946464  1.0000
  H   H7        1.0  0.7773713494264518  0.9585842217579287  0.9601286352442541  1.0000
  H   H8        1.0  0.722628651334708  0.04141577803108174  0.46012863544291754  1.0000
  H   H9        1.0  0.6021999958794318  0.7633934438111112  0.6074810627540489  1.0000
  H   H10       1.0  0.8978000026199502  0.23660655597789917  0.10748106266618494  1.0000
  H   H11       1.0  0.3978000038740821  0.26339344353987487  0.8925189372230157  1.0000
  H   H12       1.0  0.10219999713356379  0.7366065562491355  0.3925189374216791  1.0000
  H   H13       1.0  0.6380854966330985  0.36634826750489663  0.5426313678191964  1.0000
  H   H14       1.0  0.8619145018662834  0.6336517322841138  0.042631368017859814  1.0000
  H   H15       1.0  0.36191450312041534  0.8663482677761329  0.9573686321578682  1.0000
  H   H16       1.0  0.13808549788723054  0.13365173201287742  0.4573686320700042  1.0000
  H   H17       1.0  0.7312745979684935  6.093173430723276e-05  0.5592385350059516  1.0000
  H   H18       1.0  0.7687254027926663  0.9999390680547031  0.059238535204614966  1.0000
  H   H19       1.0  0.2687254017850204  0.5000609320055435  0.940761464971113  1.0000
  H   H20       1.0  0.23127459696084765  0.49993906778346686  0.4407614648832491  1.0000
  H   H21       1.0  0.23172410947534702  0.14409639977344352  0.6502600525903426  1.0000
  H   H22       1.0  0.2682758915322988  0.8559036000155669  0.1502600525024786  1.0000
  H   H23       1.0  0.7682758902781668  0.6440964000446798  0.849739947386722  1.0000
  H   H24       1.0  0.7317241082212151  0.35590359974433056  0.34973994758538546  1.0000
  H   H25       1.0  0.763948446557361  0.5930443762417149  0.6292045326599822  1.0000
  H   H26       1.0  0.7360515542037989  0.4069556243007576  0.12920453257211814  1.0000
  H   H27       1.0  0.2360515531961529  0.09304437597047868  0.8707954673170825  1.0000
  H   H28       1.0  0.26394844554971514  0.9069556238185317  0.3707954672292184  1.0000
  H   H29       1.0  0.06008075843692719  0.6278361900825032  0.5184310556002848  1.0000
  H   H30       1.0  0.4399192425707187  0.37216380970650714  0.018431055798948204  1.0000
  H   H31       1.0  0.9399192413165867  0.12783618981126696  0.9815689443767798  1.0000
  H   H32       1.0  0.5600807594445731  0.8721638099777435  0.4815689442889158  1.0000
  H   H33       1.0  0.09543296137755765  0.9883942618540541  0.6136879334403493  1.0000
  H   H34       1.0  0.4045670373683104  0.011605737934956279  0.11368793363901282  1.0000
  H   H35       1.0  0.9045670383759563  0.48839426158281785  0.8863120665367152  1.0000
  H   H36       1.0  0.5954329623852035  0.5116057382061926  0.38631206644885124  1.0000
  C   C1        1.0  0.36797828881423933  0.3743932192024713  0.7361058900811727  1.0000
  C   C2        1.0  0.13202170993162873  0.6256067805865391  0.23610588999330867  1.0000
  C   C3        1.0  0.6320217109392746  0.8743932194737076  0.7638941098958918  1.0000
  C   C4        1.0  0.8679782898218852  0.1256067803153028  0.26389410980802785  1.0000
  C   C5        1.0  0.4680769880250681  0.43850906817272955  0.7651159403954803  1.0000
  C   C6        1.0  0.031923012982577846  0.5614909316162808  0.26511594059414373  1.0000
  C   C7        1.0  0.5319230117284459  0.9385090684439658  0.7348840595815843  1.0000
  C   C8        1.0  0.9680769867709361  0.06149093134504451  0.2348840594937203  1.0000
  C   C9        1.0  0.17688670395984687  0.2950625122134806  0.7464968245830336  1.0000
  C   C10       1.0  0.323113297047799  0.7049374875755298  0.24649682478169713  1.0000
  C   C11       1.0  0.823113295793667  0.7950625124847169  0.7535031753940309  1.0000
  C   C12       1.0  0.6768867027057149  0.20493748730429348  0.2535031753061669  1.0000
  C   C13       1.0  0.17586239000883228  0.3483326676902638  0.8118893002541954  1.0000
  C   C14       1.0  0.32413761099881355  0.6516673328522088  0.3118893001663313  1.0000
  C   C15       1.0  0.8241376120064595  0.8483326672080379  0.6881106997228692  1.0000
  C   C16       1.0  0.6758623887547003  0.1516673325809725  0.18811069992153268  1.0000
  C   C17       1.0  0.07920157503009718  0.27984108777171235  0.7841522651338753  1.0000
  C   C18       1.0  0.42079842371577086  0.7201589120172981  0.2841522653325388  1.0000
  C   C19       1.0  0.9207984247234167  0.7798410880429487  0.7158477348431892  1.0000
  C   C20       1.0  0.579201576037743  0.22015891174606178  0.21584773475532523  1.0000
  C   C21       1.0  0.3720519022544707  0.4268407612301147  0.8028597895706138  1.0000
  C   C22       1.0  0.12794809649139732  0.5731592393123578  0.3028597894827498  1.0000
  C   C23       1.0  0.6279480974990432  0.9268407607478888  0.6971402104064508  1.0000
  C   C24       1.0  0.8720519032621166  0.07315923904112157  0.19714021031858675  1.0000
  C   C25       1.0  0.952460679599877  0.24049807972033596  0.6158013228193049  1.0000
  C   C26       1.0  0.5475393211612828  0.7595019200686745  0.11580132273144095  1.0000
  C   C27       1.0  0.04753932015363691  0.7404980799915722  0.8841986771577596  1.0000
  C   C28       1.0  0.45246067859223116  0.2595019205509004  0.3841986770698956  1.0000
  C   C29       1.0  0.31028618491363674  0.5251868279797183  0.5543757251462311  1.0000
  C   C30       1.0  0.18971381383223127  0.4748131718092921  0.05437572505836708  1.0000
  C   C31       1.0  0.6897138148398771  0.025186827708481997  0.9456242748308334  1.0000
  C   C32       1.0  0.8102861859212825  0.9748131720805284  0.4456242750294969  1.0000
  C   C33       1.0  0.5087909140307096  0.5149425585593529  0.5855754433232931  1.0000
  C   C34       1.0  0.9912090867304502  0.48505744122965744  0.08557544323542914  1.0000
  C   C35       1.0  0.49120908572280436  0.014942559041578849  0.9144245566537714  1.0000
  C   C36       1.0  0.008790913023063694  0.9850574415008937  0.4144245568524349  1.0000
  C   C37       1.0  0.676630508867291  0.1601456599108302  0.5651119347062874  1.0000
  C   C38       1.0  0.8233694896320909  0.8398543406316424  0.06511193490495083  1.0000
  C   C39       1.0  0.3233694908862228  0.6601456594286044  0.9348880652707772  1.0000
  C   C40       1.0  0.17663051012142306  0.33985434036040607  0.4348880651829132  1.0000
  C   C41       1.0  0.7513687367311341  0.24933644293273005  0.5849571052928303  1.0000
  C   C42       1.0  0.7486312640300257  0.7506635576097425  0.08495710520496619  1.0000
  C   C43       1.0  0.24863126302237976  0.7493364424505041  0.9150428949707619  1.0000
  C   C44       1.0  0.2513687357234883  0.25066355733850626  0.4150428948828978  1.0000
  C   C45       1.0  0.5194956959699444  0.6964234574395269  0.5929193942676423  1.0000
  C   C46       1.0  0.9805043047912153  0.30357654234948345  0.09291939417977829  1.0000
  C   C47       1.0  0.4805043037835695  0.19642345792175286  0.9070806057094223  1.0000
  C   C48       1.0  0.019495694962298506  0.8035765426207196  0.40708060562155823  1.0000
  C   C49       1.0  0.652641785428062  0.35024343500980104  0.5734087528130152  1.0000
  C   C50       1.0  0.84735821307132  0.6497565655326716  0.0734087527251511  1.0000
  C   C51       1.0  0.34735821432545194  0.8502434345275751  0.9265912471640495  1.0000
  C   C52       1.0  0.15264178668219394  0.14975656526143524  0.42659124736271287  1.0000
  C   C53       1.0  0.32426076932609815  0.7047472798115264  0.5617090442022341  1.0000
  C   C54       1.0  0.17573922941976985  0.295252719977484  0.0617090441143701  1.0000
  C   C55       1.0  0.6757392304274157  0.20474727954029012  0.9382909557748305  1.0000
  C   C56       1.0  0.8242607703337441  0.7952527202487203  0.43829095597349393  1.0000
  C   C57       1.0  0.799314602405525  0.06692289046357734  0.5751039627974773  1.0000
  C   C58       1.0  0.7006853983556347  0.9330771093254331  0.07510396299614082  1.0000
  C   C59       1.0  0.20068539734798888  0.5669228899813514  0.9248960371795873  1.0000
  C   C60       1.0  0.2993146013978792  0.43307710980765896  0.42489603709172324  1.0000
  C   C61       1.0  0.07434907767650466  0.1479150629680901  0.626302696469663  1.0000
  C   C62       1.0  0.42565092333114124  0.8520849368209203  0.12630269638179895  1.0000
  C   C63       1.0  0.9256509220770094  0.6479150632393263  0.8736973035074016  1.0000
  C   C64       1.0  0.5743490764223727  0.352084936549684  0.3736973037060651  1.0000
  C   C65       1.0  0.6088490934914226  0.6010630268344229  0.6050922766365728  1.0000
  C   C66       1.0  0.8911509072697373  0.39893697370804965  0.10509227654870881  1.0000
  C   C67       1.0  0.39115090626209137  0.10106302656318662  0.8949077233404917  1.0000
  C   C68       1.0  0.10884909248377667  0.8989369732258238  0.3949077235391552  1.0000
  C   C69       1.0  0.21674707798008866  0.6201186357920699  0.5423371026736428  1.0000
  C   C70       1.0  0.2832529230275572  0.3798813639969404  0.04233710287230622  1.0000
  C   C71       1.0  0.7832529217734253  0.1201186362742959  0.9576628973034218  1.0000
  C   C72       1.0  0.7167470767259567  0.8798813635147145  0.4576628972155578  1.0000
  C   C73       1.0  0.9995239158728766  0.06096484294303793  0.6057956348174532  1.0000
  C   C74       1.0  0.5004760826265052  0.9390351568459725  0.10579563472958926  1.0000
  C   C75       1.0  0.00047608388063728177  0.5609648432142742  0.8942043651596113  1.0000
  C   C76       1.0  0.49952391712700855  0.4390351573281983  0.39420436535827474  1.0000
  N   N1        1.0  0.4534613252998625  0.16207994881319407  0.5343114713573013  1.0000
  N   N2        1.0  0.04653867570778344  0.8379200517292785  0.03431147126943727  1.0000
  N   N3        1.0  0.5465386767154293  0.6620799483309682  0.9656885286197634  1.0000
  N   N4        1.0  0.9534613240457305  0.3379200514580422  0.4656885285318993  1.0000
  N   N5        1.0  0.6051353718803103  0.4198171915831512  0.5984902192392325  1.0000
  N   N6        1.0  0.8948646266190716  0.5801828082058591  0.09849021943789593  1.0000
  N   N7        1.0  0.3948646278732036  0.9198171918543875  0.9015097807378322  1.0000
  N   N8        1.0  0.1051353731344423  0.08018280868808507  0.40150978064996806  1.0000
  O   O1        1.0  0.2935693350928106  0.23860882977418457  0.5307664938859752  1.0000
  O   O2        1.0  0.2064306659148353  0.7613911700148257  0.03076649379811122  1.0000
  O   O3        1.0  0.7064306669224811  0.7386088300454209  0.9692335063776167  1.0000
  O   O4        1.0  0.7935693338386787  0.2613911697435895  0.46923350628975286  1.0000
  O   O5        1.0  0.4292783694263078  0.0865645528655411  0.5134012085341549  1.0000
  O   O6        1.0  0.07072163158133805  0.9134354476769315  0.013401208732818361  1.0000
  O   O7        1.0  0.5707216303272061  0.5865645523833152  0.9865987914429096  1.0000
  O   O8        1.0  0.9292783704339538  0.41343544740569516  0.4865987913550457  1.0000
  F   F1        1.0  0.08519508954801568  0.2293782246911594  0.7191218043153585  1.0000
  F   F2        1.0  0.4148049114596302  0.770621775097851  0.2191218042274945  1.0000
  F   F3        1.0  0.9148049124672761  0.7293782249623956  0.7808781956617061  1.0000
  F   F4        1.0  0.5851950882938837  0.2706217755800769  0.2808781958603695  1.0000
  F   F5        1.0  0.6643854878796426  0.5137903483469225  0.7574650079298785  1.0000
  F   F6        1.0  0.8356145128815172  0.48620965144208794  0.2574650078420145  1.0000
  F   F7        1.0  0.33561451187387137  0.013790348829148365  0.7425349920471861  1.0000
  F   F8        1.0  0.16438548687199664  0.9862096517133242  0.24253499195932207  1.0000
  F   F9        1.0  0.0853524640505585  0.33829863682637556  0.8487436097090512  1.0000
  F   F10       1.0  0.4146475369570874  0.6617013629626348  0.34874360962118717  1.0000
  F   F11       1.0  0.9146475357029554  0.8382986363441497  0.6512563902680134  1.0000
  F   F12       1.0  0.5853524627964265  0.16170136344486075  0.15125639046667688  1.0000
  F   F13       1.0  0.4722307181601697  0.4900282634013052  0.8305056782966547  1.0000
  F   F14       1.0  0.0277692828474762  0.5099717363877052  0.3305056784953182  1.0000
  F   F15       1.0  0.5277692815933442  0.9900282636725415  0.6694943216804099  1.0000
  F   F16       1.0  0.9722307191678156  0.009971736116468915  0.16949432159254585  1.0000
  Br  Br1       1.0  0.1981436769959185  0.8352718476014432  0.5454904773195385  1.0000
  Br  Br2       1.0  0.3018563217499495  0.16472815218756715  0.04549047723167456  1.0000
  Br  Br3       1.0  0.8018563227575954  0.33527184808366917  0.954509522657526  1.0000
  Br  Br4       1.0  0.6981436780035644  0.6647281524588033  0.4545095228561895  1.0000
  I   I1        1.0  0.4988203458923723  0.3975744616483176  0.6784747957660439  1.0000
  I   I2        1.0  0.0011796551152736283  0.602425538894155  0.17847479596470728  1.0000
  I   I3        1.0  0.5011796538611416  0.8975744611660916  0.8215252042110207  1.0000
  I   I4        1.0  0.9988203446382403  0.10242553862291866  0.32152520412315677  1.0000
  I   I5        1.0  0.8267579404475766  0.1535626388562532  0.8004971422082248  1.0000
  I   I6        1.0  0.6732420603135832  0.8464373609327572  0.3004971421203608  1.0000
  I   I7        1.0  0.1732420593059373  0.6535626391274896  0.6995028577688398  1.0000
  I   I8        1.0  0.3267579417017086  0.34643736066152087  0.19950285796750322  1.0000
