data_image0
_chemical_formula_structural       H32C36N64O64
_chemical_formula_sum              "H32 C36 N64 O64"
_cell_length_a       8.87065358811025
_cell_length_b       8.956970859502709
_cell_length_c       25.639566639974888
_cell_angle_alpha    90.0
_cell_angle_beta     90.0
_cell_angle_gamma    90.0

_space_group_name_H-M_alt    "P 1"
_space_group_IT_number       1

loop_
  _space_group_symop_operation_xyz
  'x, y, z'

loop_
  _atom_site_type_symbol
  _atom_site_label
  _atom_site_symmetry_multiplicity
  _atom_site_fract_x
  _atom_site_fract_y
  _atom_site_fract_z
  _atom_site_occupancy
  H   H1        1.0  0.39435644231320227  0.8017486628731426  0.6142692683208091  1.0000
  H   H2        1.0  0.10564355722965844  0.19825133718237736  0.11426926832031936  1.0000
  H   H3        1.0  0.6056435578998318  0.3017486628453826  0.8857307316806601  1.0000
  H   H4        1.0  0.894356441856063  0.6982513372101374  0.3857307316801703  1.0000
  H   H5        1.0  0.5321094790948266  0.9691746524764246  0.5591131005174446  1.0000
  H   H6        1.0  0.967890520661068  0.03082534757909541  0.05911310051695493  1.0000
  H   H7        1.0  0.46789052111820734  0.4691746524486645  0.9408868994840245  1.0000
  H   H8        1.0  0.032109478424653365  0.5308253476068554  0.44088689948353477  1.0000
  H   H9        1.0  0.9102226222453688  0.6953491183229986  0.5710563359199716  1.0000
  H   H10       1.0  0.589777377510526  0.30465088173252136  0.07105633591948199  1.0000
  H   H11       1.0  0.08977737796766527  0.19534911829523863  0.9289436640814974  1.0000
  H   H12       1.0  0.41022262270250803  0.8046508817602813  0.4289436640810077  1.0000
  H   H13       1.0  0.7711448612048971  0.5290112811936817  0.6275802569499186  1.0000
  H   H14       1.0  0.7288551396783103  0.4709887188618383  0.12758025694942884  1.0000
  H   H15       1.0  0.22885513900813698  0.02901128116592165  0.8724197430515506  1.0000
  H   H16       1.0  0.2711448605347237  0.9709887188895983  0.37241974305106085  1.0000
  H   H17       1.0  0.898641486878106  0.8839477468657947  0.7141335568227816  1.0000
  H   H18       1.0  0.6013585128777887  0.1160522531897253  0.2141335568222918  1.0000
  H   H19       1.0  0.10135851333492804  0.3839477468380347  0.7858664431786876  1.0000
  H   H20       1.0  0.3986414873352453  0.6160522532174854  0.28586644317819787  1.0000
  H   H21       1.0  0.6805930442478423  0.04175630979118369  0.708595191374022  1.0000
  H   H22       1.0  0.8194069555080524  0.9582436902643362  0.20859519137353244  1.0000
  H   H23       1.0  0.3194069559651917  0.5417563098189436  0.7914048086274469  1.0000
  H   H24       1.0  0.18059304470498164  0.4582436902365763  0.2914048086269572  1.0000
  H   H25       1.0  0.023559508656737164  0.31341224103924986  0.5477161235675921  1.0000
  H   H26       1.0  0.47644049088612356  0.6865877590162701  0.04771612356710246  1.0000
  H   H27       1.0  0.9764404915562969  0.8134122410670098  0.9522838764338769  1.0000
  H   H28       1.0  0.5235595093269105  0.18658775898851013  0.45228387643338724  1.0000
  H   H29       1.0  0.34899618604760735  0.2075845304361334  0.6647395406218416  1.0000
  H   H30       1.0  0.15100381349525335  0.7924154696193866  0.1647395406213518  1.0000
  H   H31       1.0  0.6510038141654267  0.7075845304638934  0.8352604593796276  1.0000
  H   H32       1.0  0.8489961867177807  0.2924154695916266  0.3352604593791379  1.0000
  C   C1        1.0  0.5140379414783802  0.8062245744987193  0.6244278167727908  1.0000
  C   C2        1.0  0.9859620594048271  0.19377542555680066  0.12442781677230114  1.0000
  C   C3        1.0  0.48596205873465376  0.3062245744709593  0.8755721832286782  1.0000
  C   C4        1.0  0.01403794080820692  0.6937754255845606  0.3755721832281885  1.0000
  C   C5        1.0  0.6050975891105093  0.915529089982468  0.5879102923876393  1.0000
  C   C6        1.0  0.8949024106453854  0.08447091007305192  0.08791029238714963  1.0000
  C   C7        1.0  0.3949024111025248  0.41552908995470805  0.9120897076138298  1.0000
  C   C8        1.0  0.10509758844033591  0.5844709101008119  0.4120897076133401  1.0000
  C   C9        1.0  0.8286244318966686  0.7547424744413344  0.5953243591957587  1.0000
  C   C10       1.0  0.6713755678592261  0.24525752561418562  0.0953243591952689  1.0000
  C   C11       1.0  0.1713755683163654  0.2547424744135744  0.9046756408057105  1.0000
  C   C12       1.0  0.32862443122649526  0.7452575256419456  0.4046756408052208  1.0000
  C   C13       1.0  0.7375488463182996  0.6455612048648589  0.6323171478539419  1.0000
  C   C14       1.0  0.7624511545649076  0.35443879519066107  0.13231714785345228  1.0000
  C   C15       1.0  0.2624511538947343  0.14556120483709895  0.867682852147527  1.0000
  C   C16       1.0  0.2375488456481264  0.854438795218421  0.3676828521470374  1.0000
  C   C17       1.0  0.8259120951155041  0.8518549093977537  0.6815787913027346  1.0000
  C   C18       1.0  0.6740879046403905  0.14814509065776632  0.18157879130224489  1.0000
  C   C19       1.0  0.17408790397021723  0.35185490936999364  0.8184212086987346  1.0000
  C   C20       1.0  0.32591209557264345  0.6481450906855264  0.3184212086982448  1.0000
  C   C21       1.0  0.6798204709608879  0.9578195144955863  0.6775984159152315  1.0000
  C   C22       1.0  0.8201795299223195  0.04218048555993359  0.17759841591474182  1.0000
  C   C23       1.0  0.32017952925214604  0.45781951446782637  0.8224015840862376  1.0000
  C   C24       1.0  0.1798204702907146  0.5421804855876935  0.32240158408574787  1.0000
  C   C25       1.0  0.21233846314601346  0.1437079499521186  0.5513240285411409  1.0000
  C   C26       1.0  0.2876615375241599  0.8562920501034014  0.05132402854065121  1.0000
  C   C27       1.0  0.7876615370670206  0.6437079499798786  0.9486759714603281  1.0000
  C   C28       1.0  0.7123384626888741  0.3562920500756414  0.44867597145983845  1.0000
  C   C29       1.0  0.1160994361656049  0.2557585712774314  0.5663596680046782  1.0000
  C   C30       1.0  0.38390056450456844  0.7442414287780885  0.06635966800418848  1.0000
  C   C31       1.0  0.8839005640474291  0.7557585713051914  0.9336403319967909  1.0000
  C   C32       1.0  0.6160994357084656  0.24424142875032856  0.4336403319963012  1.0000
  C   C33       1.0  0.2890951703307713  0.1983539499980733  0.6280319861137781  1.0000
  C   C34       1.0  0.21090483033940205  0.8016460500574466  0.12803198611328848  1.0000
  C   C35       1.0  0.7109048298822627  0.6983539500258333  0.8719680138876909  1.0000
  C   C36       1.0  0.7890951698736319  0.30164605002968664  0.3719680138872012  1.0000
  N   N1        1.0  0.5801495863729629  0.6598387091691545  0.6207558233525428  1.0000
  N   N2        1.0  0.9198504133829317  0.3401612908863655  0.12075582335205305  1.0000
  N   N3        1.0  0.41985041271275847  0.1598387091413945  0.8792441766489264  1.0000
  N   N4        1.0  0.0801495868301022  0.8401612909141255  0.3792441766484366  1.0000
  N   N5        1.0  0.4879310433000538  0.5321154522841237  0.6226829241765858  1.0000
  N   N6        1.0  0.01206895624280683  0.4678845477713963  0.12268292417609601  1.0000
  N   N7        1.0  0.5120689557856676  0.03211545225636368  0.8773170758248834  1.0000
  N   N8        1.0  0.9879310439702272  0.9678845477991562  0.37731707582439367  1.0000
  N   N9        1.0  0.7236514239045514  0.8332649560963711  0.5626684589710417  1.0000
  N   N10       1.0  0.7763485758513433  0.1667350439591489  0.062668458970552  1.0000
  N   N11       1.0  0.2763485763084826  0.33326495606861106  0.9373315410304274  1.0000
  N   N12       1.0  0.22365142436169075  0.666735043986909  0.4373315410299377  1.0000
  N   N13       1.0  0.7626227338048004  0.8661501920338645  0.5100639052771763  1.0000
  N   N14       1.0  0.737377267078407  0.13384980802165547  0.01006390527668656  1.0000
  N   N15       1.0  0.2373772664082336  0.36615019200610455  0.9899360943342705  1.0000
  N   N16       1.0  0.2626227331346271  0.6338498080494154  0.48993609433378094  1.0000
  N   N17       1.0  0.6634252855830106  0.024796950161377583  0.6262206778084501  1.0000
  N   N18       1.0  0.8365747153001968  0.9752030498941423  0.1262206778079604  1.0000
  N   N19       1.0  0.33657471463002336  0.5247969501891376  0.873779322193019  1.0000
  N   N20       1.0  0.1634252849128373  0.4752030498663824  0.3737793221925293  1.0000
  N   N21       1.0  0.7642582220871347  0.133737166145755  0.6110356270832565  1.0000
  N   N22       1.0  0.7357417776687601  0.8662628339097649  0.1110356270827668  1.0000
  N   N23       1.0  0.23574177812589944  0.633737166173515  0.8889643729182126  1.0000
  N   N24       1.0  0.2642582225442739  0.3662628338820049  0.3889643729177229  1.0000
  N   N25       1.0  0.9056942186050957  0.8567600498396685  0.6316992298437639  1.0000
  N   N26       1.0  0.594305781150799  0.14323995021585142  0.13169922984327426  1.0000
  N   N27       1.0  0.09430578160793836  0.35676004981190856  0.8683007701577051  1.0000
  N   N28       1.0  0.40569421793492233  0.6432399491271625  0.3683007701572154  1.0000
  N   N29       1.0  0.06644873279575012  0.8540763289280953  0.632499054984647  1.0000
  N   N30       1.0  0.4335512667471106  0.14592367112742471  0.13249905498415737  1.0000
  N   N31       1.0  0.9335512674172839  0.35407632890033525  0.867500945016822  1.0000
  N   N32       1.0  0.5664487334659234  0.6459236711551848  0.3675009450163323  1.0000
  N   N33       1.0  0.773732449568258  0.698061316495914  0.6853512150475726  1.0000
  N   N34       1.0  0.7262675501876367  0.3019386824431571  0.18535121504708296  1.0000
  N   N35       1.0  0.22626755064477602  0.19806131758460294  0.8146487849538964  1.0000
  N   N36       1.0  0.2737324500253973  0.801938682470917  0.3146487849534067  1.0000
  N   N37       1.0  0.8532382450538696  0.5970279142224313  0.7190068525283801  1.0000
  N   N38       1.0  0.6467617547020251  0.4029720858330887  0.21900685252789043  1.0000
  N   N39       1.0  0.14676175515916445  0.09702791419467129  0.7809931474730889  1.0000
  N   N40       1.0  0.3532382455110089  0.9029720858608487  0.28099314747259924  1.0000
  N   N41       1.0  0.5383845680098768  0.8742973135490116  0.6764633530489729  1.0000
  N   N42       1.0  0.9616154317460179  0.12570268650650837  0.17646335304848315  1.0000
  N   N43       1.0  0.4616154322031572  0.3742973135212516  0.8235366469524963  1.0000
  N   N44       1.0  0.03838456733970347  0.6257026865342684  0.3235366469520065  1.0000
  N   N45       1.0  0.49420113483812833  0.7978815240219257  0.7210738582131553  1.0000
  N   N46       1.0  0.005798864704732362  0.2021184760335942  0.22107385821266562  1.0000
  N   N47       1.0  0.5057988653749057  0.2978815239941658  0.7789261417883138  1.0000
  N   N48       1.0  0.9942011355083017  0.7021184760613541  0.27892614178782404  1.0000
  N   N49       1.0  0.16637797264208273  0.28809357320419665  0.6157189418087397  1.0000
  N   N50       1.0  0.33362202690077797  0.7119064268513233  0.11571894180824992  1.0000
  N   N51       1.0  0.8336220264436387  0.7880935732319566  0.8842810581927294  1.0000
  N   N52       1.0  0.6663779733122561  0.21190642682356334  0.3842810581922398  1.0000
  N   N53       1.0  0.3187539420759148  0.10992470841360585  0.5886617185045676  1.0000
  N   N54       1.0  0.1812460574669459  0.8900752916419141  0.08866171850407789  1.0000
  N   N55       1.0  0.6812460570098066  0.6099247084413659  0.9113382814969014  1.0000
  N   N56       1.0  0.8187539427460881  0.3900752916141541  0.41133828149641183  1.0000
  N   N57       1.0  0.20747926200915756  0.0677242462340308  0.5022506480247052  1.0000
  N   N58       1.0  0.29252073753370317  0.9322757538214892  0.002250648024215456  1.0000
  N   N59       1.0  0.7925207382038765  0.5677242462617909  0.997749351976764  1.0000
  N   N60       1.0  0.7074792615520182  0.4322757537937292  0.4977493519762743  1.0000
  N   N61       1.0  0.1113643138228387  0.4094395848245074  0.6469401450077022  1.0000
  N   N62       1.0  0.3886356868473346  0.5905604152310127  0.14694014500721256  1.0000
  N   N63       1.0  0.8886356863901953  0.9094395848522674  0.8530598549937668  1.0000
  N   N64       1.0  0.6113643133656994  0.09056041520325263  0.3530598549932771  1.0000
  O   O1        1.0  0.5508950069417664  0.41305627404993134  0.6324051801530715  1.0000
  O   O2        1.0  0.9491049928141285  0.5869437260055886  0.13240518015258174  1.0000
  O   O3        1.0  0.4491049932712677  0.9130562740776913  0.8675948198483977  1.0000
  O   O4        1.0  0.05089500627159299  0.08694372597782866  0.3675948198479079  1.0000
  O   O5        1.0  0.3541529853235156  0.552644558930141  0.6127454523940965  1.0000
  O   O6        1.0  0.14584701421934507  0.44735544112537906  0.11274545239360688  1.0000
  O   O7        1.0  0.6458470148895183  0.05264455890238094  0.8872545476073725  1.0000
  O   O8        1.0  0.8541529859936889  0.9473554411531391  0.3872545476068828  1.0000
  O   O9        1.0  0.8841919743673479  0.8163967344207689  0.4949770804711397  1.0000
  O   O10       1.0  0.6158080253885467  0.18360326563475102  0.9949770804716295  1.0000
  O   O11       1.0  0.11580802584568613  0.31639673439300897  0.005022919529349976  1.0000
  O   O12       1.0  0.38419197369717456  0.683603265662511  0.5050229195298397  1.0000
  O   O13       1.0  0.668857238203118  0.9367028062951422  0.4850326128605807  1.0000
  O   O14       1.0  0.8311427615527768  0.06329719376037773  0.9850326128610705  1.0000
  O   O15       1.0  0.3311427608826034  0.4367028062673822  0.014967387139909001  1.0000
  O   O16       1.0  0.1688572386602573  0.5632971937881377  0.5149673871403987  1.0000
  O   O17       1.0  0.8397543344477424  0.1921586680360774  0.6460844246163213  1.0000
  O   O18       1.0  0.6602456653081523  0.8078413320194425  0.14608442461583152  1.0000
  O   O19       1.0  0.16024566576529164  0.6921586680638374  0.8539155753851478  1.0000
  O   O20       1.0  0.33975433377756903  0.30784133199168257  0.3539155753846582  1.0000
  O   O21       1.0  0.7677591828327583  0.16323930968791578  0.5639433093013526  1.0000
  O   O22       1.0  0.7322408169231365  0.8367606903676043  0.06394330930086288  1.0000
  O   O23       1.0  0.23224081738027572  0.6632393097156758  0.9360566907001165  1.0000
  O   O24       1.0  0.2677591832898976  0.33676069033984424  0.43605669069962677  1.0000
  O   O25       1.0  0.12764273892034747  0.8971741257229184  0.6727405799093058  1.0000
  O   O26       1.0  0.3723572606225132  0.10282587433260158  0.1727405799088162  1.0000
  O   O27       1.0  0.8723572612926865  0.3971741256951584  0.8272594200921631  1.0000
  O   O28       1.0  0.6276427384632082  0.6028258743603616  0.3272594200916735  1.0000
  O   O29       1.0  0.1279010919241297  0.8166595263888262  0.5914473459296679  1.0000
  O   O30       1.0  0.372098907618731  0.1833404736666938  0.09144734592917816  1.0000
  O   O31       1.0  0.8720989071615917  0.3166595263610662  0.9085526540718012  1.0000
  O   O32       1.0  0.627901092594303  0.6833404736944537  0.4085526540713115  1.0000
  O   O33       1.0  0.9395516358761924  0.6533020260741231  0.7509195475239459  1.0000
  O   O34       1.0  0.5604483638797023  0.34669797398139685  0.25091954752345613  1.0000
  O   O35       1.0  0.06044836433684165  0.15330202604636314  0.7490804524775233  1.0000
  O   O36       1.0  0.43955163633333166  0.8466979740091568  0.24908045247703353  1.0000
  O   O37       1.0  0.8202707385341723  0.4648629570545652  0.7137348948585007  1.0000
  O   O38       1.0  0.6797292612217224  0.5351370430009548  0.21373489485801103  1.0000
  O   O39       1.0  0.17972926167886163  0.9648629570823252  0.7862651051429684  1.0000
  O   O40       1.0  0.3202707389913117  0.03513704297319477  0.28626510514247866  1.0000
  O   O41       1.0  0.5541077408983937  0.8379077812938964  0.7623117580125817  1.0000
  O   O42       1.0  0.9458922588575011  0.1620922187616235  0.262311758012092  1.0000
  O   O43       1.0  0.4458922593146404  0.33790778126613646  0.7376882419888874  1.0000
  O   O44       1.0  0.05410774135553299  0.6620922187893835  0.2376882419883977  1.0000
  O   O45       1.0  0.398293273985539  0.6994456047999053  0.715378387924967  1.0000
  O   O46       1.0  0.10170672668463433  0.30055439525561467  0.21537838792447736  1.0000
  O   O47       1.0  0.601706726227495  0.1994456047721453  0.784621612076502  1.0000
  O   O48       1.0  0.8982932735283997  0.8005543952833746  0.28462161207601233  1.0000
  O   O49       1.0  0.15851508076977605  0.41465099733574456  0.6914487560940057  1.0000
  O   O50       1.0  0.3414849187730846  0.5853490027197754  0.19144875609351591  1.0000
  O   O51       1.0  0.8414849183159453  0.9146509973635045  0.8085512439074635  1.0000
  O   O52       1.0  0.6585150814399494  0.08534900269201538  0.3085512439069738  1.0000
  O   O53       1.0  0.024653393104328042  0.4941616021117369  0.6245714615563286  1.0000
  O   O54       1.0  0.47534660756584524  0.505838397943783  0.12457146155583884  1.0000
  O   O55       1.0  0.975346607108706  0.994161602139497  0.8754285380551183  1.0000
  O   O56       1.0  0.5246533926471888  0.005838397916023071  0.37542853844465085  1.0000
  O   O57       1.0  0.32267682776346346  0.9990290791787625  0.488238378822001  1.0000
  O   O58       1.0  0.17732317177939724  0.0009709208767575279  0.9882383788224908  1.0000
  O   O59       1.0  0.6773231713222578  0.4990290791510025  0.01176162117848866  1.0000
  O   O60       1.0  0.8226768284336368  0.5009709209045176  0.5117616211789784  1.0000
  O   O61       1.0  0.08890803729018282  0.07638244566511677  0.476898427796983  1.0000
  O   O62       1.0  0.4110919622526779  0.9236175543904032  0.9768984277974727  1.0000
  O   O63       1.0  0.9110919617955385  0.5763824456928768  0.023101572203506636  1.0000
  O   O64       1.0  0.5889080379603562  0.4236175543626432  0.5231015722039963  1.0000
