data_image0
_chemical_formula_structural       H44C50N4O10F8S4
_chemical_formula_sum              "H44 C50 N4 O10 F8 S4"
_cell_length_a       10.611044078382768
_cell_length_b       11.079679788527054
_cell_length_c       11.95148216896084
_cell_angle_alpha    110.27688014319993
_cell_angle_beta     98.59718852757746
_cell_angle_gamma    97.6525472203706

_space_group_name_H-M_alt    "P 1"
_space_group_IT_number       1

loop_
  _space_group_symop_operation_xyz
  'x, y, z'

loop_
  _atom_site_type_symbol
  _atom_site_label
  _atom_site_symmetry_multiplicity
  _atom_site_fract_x
  _atom_site_fract_y
  _atom_site_fract_z
  _atom_site_occupancy
  H   H1        1.0  0.6015550316149952  0.0006066899989640767  0.9789153125223242  1.0000
  H   H2        1.0  0.3984449680169763  0.9993933103274115  0.021084687934221837  1.0000
  H   H3        1.0  0.7159915214538204  0.8457562412908882  0.8462401219738148  1.0000
  H   H4        1.0  0.28400847798757795  0.15424375805359003  0.15375987814358313  1.0000
  H   H5        1.0  0.028116844398722744  0.9281110555498416  0.15379564612131646  1.0000
  H   H6        1.0  0.9718831552332488  0.07188894477653399  0.8462043543352296  1.0000
  H   H7        1.0  0.9175768277011401  0.08706200391449209  0.28793316629510196  1.0000
  H   H8        1.0  0.0824231719308315  0.9129379964118836  0.7120668341614441  1.0000
  H   H9        1.0  0.6153393279003976  0.5090416809294688  0.24719096082361686  1.0000
  H   H10       1.0  0.38466067249576574  0.49095831841663995  0.7528090385854666  1.0000
  H   H11       1.0  0.3935239869878327  0.5401436099488526  0.1724471630177068  1.0000
  H   H12       1.0  0.6064760135979494  0.45985639038103393  0.827552837567716  1.0000
  H   H13       1.0  0.2025495379627214  0.4502050140308889  0.23801386908295802  1.0000
  H   H14       1.0  0.7974504614796315  0.549794985311709  0.7619861301972486  1.0000
  H   H15       1.0  0.22721564609422665  0.32228275816680574  0.3713923748720063  1.0000
  H   H16       1.0  0.7727843533481261  0.677717241175792  0.6286076244082002  1.0000
  H   H17       1.0  0.28877544902713237  0.20239233857680514  0.4996343307468535  1.0000
  H   H18       1.0  0.7112245506048391  0.7976076617495705  0.5003656697096925  1.0000
  H   H19       1.0  0.3890710746943625  0.09781024513584166  0.6346917925937084  1.0000
  H   H20       1.0  0.6109289249385638  0.9021897551886537  0.3653082070256462  1.0000
  H   H21       1.0  0.627074435632877  0.10851039167404222  0.6755562593906584  1.0000
  H   H22       1.0  0.3729255647623318  0.8914896076739469  0.32444374085561634  1.0000
  H   H23       1.0  0.7702645228331612  0.22668396311275466  0.5812180487115618  1.0000
  H   H24       1.0  0.22973547756300208  0.7733160362333541  0.41878195069752155  1.0000
  H   H25       1.0  0.49660167266431976  0.8425912290149907  0.11898681329879267  1.0000
  H   H26       1.0  0.5033983269676519  0.15740877131138498  0.8810131871577533  1.0000
  H   H27       1.0  0.4908498754183065  0.7412194815739482  0.9647488545642253  1.0000
  H   H28       1.0  0.50915012516843  0.25878051875405794  0.0352511451840062  1.0000
  H   H29       1.0  0.6088589047535168  0.5897481296695296  0.03830275138092454  1.0000
  H   H30       1.0  0.3911410958322652  0.4102518706603569  0.9616972492044985  1.0000
  H   H31       1.0  0.6178026813300459  0.694945122464492  0.19182813720988928  1.0000
  H   H32       1.0  0.3821973192557362  0.30505487786539454  0.8081718633755336  1.0000
  H   H33       1.0  0.7012244243818699  0.7529337069559012  0.09686647938947178  1.0000
  H   H34       1.0  0.29877557620391204  0.2470662933739853  0.9031335211959512  1.0000
  H   H35       1.0  0.260485863072506  0.6928470435867382  0.9245268926347829  1.0000
  H   H36       1.0  0.7395141363688923  0.30715295575774004  0.07547310748261502  1.0000
  H   H37       1.0  0.2627378098814295  0.7951910338744252  0.07735453828046358  1.0000
  H   H38       1.0  0.7372621907043525  0.20480896645546123  0.9226454623049593  1.0000
  H   H39       1.0  0.1501822148897945  0.4972945500149097  0.9597045762876968  1.0000
  H   H40       1.0  0.8498177856959875  0.5027054503149768  0.040295424297725965  1.0000
  H   H41       1.0  0.05718034998351809  0.6227554394242247  0.9861883235019107  1.0000
  H   H42       1.0  0.9428196496484534  0.3772445609021509  0.013811676954635274  1.0000
  H   H43       1.0  0.14917786314966006  0.6004887845654748  0.11193427211303071  1.0000
  H   H44       1.0  0.8508221362926927  0.39951121477712315  0.8880657271671758  1.0000
  C   C1        1.0  0.7542120089730899  0.27053249879523933  0.3088687624100027  1.0000
  C   C2        1.0  0.24578799065888163  0.7294675015311363  0.6911312380465434  1.0000
  C   C3        1.0  0.6795057988517423  0.14272813043386803  0.21997191566768312  1.0000
  C   C4        1.0  0.3204942005906104  0.8572718689087299  0.7800280836125234  1.0000
  C   C5        1.0  0.7516808505649668  0.054093420529286514  0.142000466717956  1.0000
  C   C6        1.0  0.2483191488764314  0.9459065788151917  0.8579995333994419  1.0000
  C   C7        1.0  0.6949915350479083  0.9856017343648169  0.017841589372132635  1.0000
  C   C8        1.0  0.3050084645840632  0.014398265961558796  0.9821584110844134  1.0000
  C   C9        1.0  0.7582126061177107  0.8989430677878374  0.942767735859337  1.0000
  C   C10       1.0  0.2417873935152154  0.10105693253665787  0.05723226376001748  1.0000
  C   C11       1.0  0.8765682630862427  0.8801369984069877  0.9951571448272029  1.0000
  C   C12       1.0  0.12343173635515547  0.1198630009374906  0.004842855290195092  1.0000
  C   C13       1.0  0.9352355814090892  0.9462503302429978  0.11761011452313509  1.0000
  C   C14       1.0  0.06476441917669289  0.05374967008688881  0.882389886062288  1.0000
  C   C15       1.0  0.8724918685963667  0.03498793228939547  0.1914405097172939  1.0000
  C   C16       1.0  0.12750813103560482  0.9650120680369801  0.808559490739252  1.0000
  C   C17       1.0  0.6067513657613621  0.27522339266436235  0.48734906050057  1.0000
  C   C18       1.0  0.39324863463480103  0.7247766066817464  0.5126509389085134  1.0000
  C   C19       1.0  0.47222027983840253  0.2720267342714819  0.4632592061176506  1.0000
  C   C20       1.0  0.5277797196039502  0.7279732650711159  0.536740793162556  1.0000
  C   C21       1.0  0.43499381154256384  0.34240640139256884  0.3845231323012085  1.0000
  C   C22       1.0  0.5650061880894077  0.6575935989338069  0.6154768681553375  1.0000
  C   C23       1.0  0.5414442782359293  0.3972477083497061  0.3481576515074695  1.0000
  C   C24       1.0  0.45855572235080716  0.6027522919782999  0.651842348240762  1.0000
  C   C25       1.0  0.5302154132995289  0.46730190842804353  0.2721435369977213  1.0000
  C   C26       1.0  0.46978458709567983  0.5326980909199458  0.7278564632485536  1.0000
  C   C27       1.0  0.4056582546732708  0.4843518502865905  0.23128300443655145  1.0000
  C   C28       1.0  0.594341744769082  0.5156481490560074  0.7687169948436551  1.0000
  C   C29       1.0  0.2985502041402887  0.43378591520751925  0.2682870953029772  1.0000
  C   C30       1.0  0.7014497964454933  0.5662140851223673  0.7317129052824457  1.0000
  C   C31       1.0  0.3117040941512774  0.3623699894744064  0.3441703017956861  1.0000
  C   C32       1.0  0.6882959054816488  0.637630010850089  0.6558296978236686  1.0000
  C   C33       1.0  0.39331994321804564  0.20685977845798142  0.5169473347253419  1.0000
  C   C34       1.0  0.606680056413926  0.7931402218683943  0.4830526657312041  1.0000
  C   C35       1.0  0.45036146462179905  0.1488553308073964  0.5929246885574745  1.0000
  C   C36       1.0  0.5496385359649375  0.8511446695206097  0.40707531119075707  1.0000
  C   C37       1.0  0.5847500463845775  0.15494548217854504  0.6162914756698692  1.0000
  C   C38       1.0  0.415249953247394  0.8450545181478305  0.3837085247866769  1.0000
  C   C39       1.0  0.6655573151693877  0.21935726262207983  0.5635777450707002  1.0000
  C   C40       1.0  0.33444268446353836  0.7806427377024154  0.4364222545486544  1.0000
  C   C41       1.0  0.9504632763590224  0.7899097774455509  0.34255412579531397  1.0000
  C   C42       1.0  0.049536724037140704  0.2100902219005579  0.6574458736137694  1.0000
  C   C43       1.0  0.49430652783162954  0.7407630827939701  0.05757598072448406  1.0000
  C   C44       1.0  0.5056934725635792  0.2592369165540191  0.9424240195217908  1.0000
  C   C45       1.0  0.6121237332230621  0.6912775147517797  0.09830061282957536  1.0000
  C   C46       1.0  0.38787626736271996  0.3087224855781069  0.9016993877558476  1.0000
  C   C47       1.0  0.26333137494020736  0.6933548942593153  0.017624346432853523  1.0000
  C   C48       1.0  0.736668624501191  0.30664510508516307  0.9823756536845445  1.0000
  C   C49       1.0  0.1484343524210448  0.5976716609127594  0.019106366917193487  1.0000
  C   C50       1.0  0.8515656479751184  0.4023283384333494  0.9808936324918899  1.0000
  N   N1        1.0  0.8705932783554902  0.3195435147783686  0.29892472270615245  1.0000
  N   N2        1.0  0.12940672108686255  0.6804564845642292  0.7010752765740542  1.0000
  N   N3        1.0  0.9690839307660088  0.35873901763319854  0.2847699042840993  1.0000
  N   N4        1.0  0.030916069629200075  0.6412609817147906  0.7152300959621755  1.0000
  O   O1        1.0  0.5610789020731658  0.11416562573215745  0.2128811323866777  1.0000
  O   O2        1.0  0.43892109832204307  0.8858343736158317  0.7871188678595972  1.0000
  O   O3        1.0  0.8197470464346157  0.5835349711491651  0.3610130149077808  1.0000
  O   O4        1.0  0.18025295319831028  0.4164650291753302  0.6389869847115739  1.0000
  O   O5        1.0  0.9247436833743342  0.7725416297083977  0.5500356189180603  1.0000
  O   O6        1.0  0.07525631625859187  0.22745837061609755  0.44996438070129435  1.0000
  O   O7        1.0  0.05750658736864287  0.6319242153198099  0.4312252144374197  1.0000
  O   O8        1.0  0.9424934132180935  0.36807578500819627  0.5687747853108117  1.0000
  O   O9        1.0  0.3800568198477652  0.6561060710431206  0.05736600214108245  1.0000
  O   O10       1.0  0.6199431807389714  0.3438939292848855  0.942633997607149  1.0000
  F   F1        1.0  0.9382694014777697  0.7929174159141865  0.9234896269649681  1.0000
  F   F2        1.0  0.06173059796362872  0.20708258343029187  0.07651037315242988  1.0000
  F   F3        1.0  0.9567409848009004  0.720232474581482  0.22546291733637597  1.0000
  F   F4        1.0  0.04325901483202561  0.2797675257430133  0.7745370822829787  1.0000
  F   F5        1.0  0.8459067171915444  0.8482694308801669  0.34031947708252464  1.0000
  F   F6        1.0  0.15409328244042728  0.15173056944620872  0.6596805233740214  1.0000
  F   F7        1.0  0.05907236089136789  0.8868462880202853  0.3925004715266224  1.0000
  F   F8        1.0  0.9409276396944142  0.1131537123096013  0.6074995290588004  1.0000
  S   S1        1.0  0.690695687999494  0.37661677787561537  0.4233870342590375  1.0000
  S   S2        1.0  0.30930431258628804  0.6233832224542711  0.5766129663263854  1.0000
  S   S3        1.0  0.936803565389821  0.6817722029504729  0.43168779253557193  1.0000
  S   S4        1.0  0.06319643519596102  0.31822779737941354  0.5683122080498509  1.0000
