data_image0
_chemical_formula_structural       H68C76N12O24S4
_chemical_formula_sum              "H68 C76 N12 O24 S4"
_cell_length_a       15.106665238405476
_cell_length_b       5.444963834725794
_cell_length_c       22.888299882099442
_cell_angle_alpha    90.0
_cell_angle_beta     100.43659702110628
_cell_angle_gamma    90.0

_space_group_name_H-M_alt    "P 1"
_space_group_IT_number       1

loop_
  _space_group_symop_operation_xyz
  'x, y, z'

loop_
  _atom_site_type_symbol
  _atom_site_label
  _atom_site_symmetry_multiplicity
  _atom_site_fract_x
  _atom_site_fract_y
  _atom_site_fract_z
  _atom_site_occupancy
  H   H1        1.0  0.9684140365711551  0.9640173818095413  0.5127335727357548  1.0000
  H   H2        1.0  0.968414036289775  0.035982619159097985  0.012733572794115501  1.0000
  H   H3        1.0  0.46841403659756153  0.4640173813252217  0.5127335726705438  1.0000
  H   H4        1.0  0.4684140363161813  0.5359826196434176  0.012733572728904387  1.0000
  H   H5        1.0  0.44563575425193863  0.8245860498403303  0.17952605285994191  1.0000
  H   H6        1.0  0.44563575453331894  0.17541395112830893  0.6795260528015813  1.0000
  H   H7        1.0  0.9456357542255324  0.3245860493560107  0.17952605292515306  1.0000
  H   H8        1.0  0.9456357545069126  0.6754139497760691  0.6795260528667924  1.0000
  H   H9        1.0  0.512902070799296  0.29799809498307034  0.3338563500348732  1.0000
  H   H10       1.0  0.5129020704075905  0.7020019041490095  0.8338563498937163  1.0000
  H   H11       1.0  0.012902070825702272  0.7979980954673901  0.333856349969662  1.0000
  H   H12       1.0  0.01290207043399684  0.20200190550124933  0.8338563498285052  1.0000
  H   H13       1.0  0.9293231843120078  0.4288598328436089  0.3552713031672516  1.0000
  H   H14       1.0  0.929323184593388  0.5711401681250303  0.855271303108891  1.0000
  H   H15       1.0  0.4293231843384141  0.9288598333279285  0.3552713031020404  1.0000
  H   H16       1.0  0.4293231846197943  0.0711401676407107  0.8552713030436797  1.0000
  H   H17       1.0  0.8125437156492915  0.12888532803916064  0.31260049507865656  1.0000
  H   H18       1.0  0.812543715254009  0.8711146710929192  0.8126004953739704  1.0000
  H   H19       1.0  0.3125437156721208  0.6288853285234802  0.312600495449916  1.0000
  H   H20       1.0  0.31254371528041536  0.3711146706085995  0.8126004953087592  1.0000
  H   H21       1.0  0.635157733054802  0.4137104778609502  0.42488262889053  1.0000
  H   H22       1.0  0.6351577326630966  0.5862895212711297  0.9248826287493732  1.0000
  H   H23       1.0  0.13515773308120843  0.9137104783452699  0.4248826288253189  1.0000
  H   H24       1.0  0.13515773268592599  0.08628952078680999  0.9248826291206328  1.0000
  H   H25       1.0  0.7557201950489405  0.7040771778042603  0.47062815321557167  1.0000
  H   H26       1.0  0.755720194653658  0.29592282316437896  0.9706281535108855  1.0000
  H   H27       1.0  0.25572019507176985  0.20407717731994066  0.4706281535868311  1.0000
  H   H28       1.0  0.25572019468006446  0.7959228218121391  0.9706281534456744  1.0000
  H   H29       1.0  0.5655818739523257  0.2604941048375997  0.21551027099606587  1.0000
  H   H30       1.0  0.5655818742337061  0.7395058961310397  0.7155102709377053  1.0000
  H   H31       1.0  0.06558187397873215  0.76049410348536  0.21551027093085473  1.0000
  H   H32       1.0  0.06558187426011239  0.23950589564671995  0.715510270872494  1.0000
  H   H33       1.0  0.6270075089980918  0.4788883414376827  0.2650804464449296  1.0000
  H   H34       1.0  0.6270075086063863  0.5211116595309566  0.7650804463037729  1.0000
  H   H35       1.0  0.12700750902449806  0.9788883400854428  0.2650804463797185  1.0000
  H   H36       1.0  0.12700750863279264  0.02111165904663698  0.7650804462385619  1.0000
  H   H37       1.0  0.9074709624403781  0.4773282814891068  0.07325711291315334  1.0000
  H   H38       1.0  0.9074709620486727  0.522671717642973  0.5732571127719965  1.0000
  H   H39       1.0  0.4074709624667845  0.9773282819734264  0.07325711284794223  1.0000
  H   H40       1.0  0.40747096207507905  0.0226717171586534  0.5732571127067854  1.0000
  H   H41       1.0  0.7965585149587167  0.793417901593383  0.028728137143995615  1.0000
  H   H42       1.0  0.7965585152400968  0.20658209937525618  0.528728137085635  1.0000
  H   H43       1.0  0.29655851498512303  0.29341790110906346  0.028728137078784487  1.0000
  H   H44       1.0  0.29655851526650323  0.7065820980230164  0.5287281370204239  1.0000
  H   H45       1.0  0.7202206850210154  0.8669308471610294  0.20183966180806584  1.0000
  H   H46       1.0  0.72022068462931  0.1330691538076099  0.701839661666909  1.0000
  H   H47       1.0  0.22022068504742176  0.3669308466767097  0.2018396617428547  1.0000
  H   H48       1.0  0.22022068465213934  0.6330691542919296  0.7018396620381685  1.0000
  H   H49       1.0  0.8402232525684541  0.5627820722071551  0.23975814204508356  1.0000
  H   H50       1.0  0.8402232521767488  0.43721792692492467  0.7397581419039269  1.0000
  H   H51       1.0  0.34022325259486047  0.06278207172283545  0.2397581419798724  1.0000
  H   H52       1.0  0.340223252203155  0.9372179274092444  0.7397581418387157  1.0000
  H   H53       1.0  0.5582493756176277  0.5238121843546886  0.12331866566611412  1.0000
  H   H54       1.0  0.5582493758954309  0.4761878147773912  0.623318666044224  1.0000
  H   H55       1.0  0.05824937564045703  0.023812183870368982  0.1233186660373736  1.0000
  H   H56       1.0  0.05824937592183726  0.9761878152617108  0.623318665979013  1.0000
  H   H57       1.0  0.6813077839313094  0.23829324296427423  0.16789293277473583  1.0000
  H   H58       1.0  0.6813077842126896  0.7617067561678056  0.6678929327163752  1.0000
  H   H59       1.0  0.18130778395771574  0.7382932434485939  0.16789293270952468  1.0000
  H   H60       1.0  0.181307784239096  0.26170675568348595  0.667892932651164  1.0000
  H   H61       1.0  0.6538496411076946  0.8866787487566724  0.9959307376201635  1.0000
  H   H62       1.0  0.6538496414994001  0.11332125221196687  0.4959307377613203  1.0000
  H   H63       1.0  0.15384964113410088  0.38667874827235277  0.9959307375549524  1.0000
  H   H64       1.0  0.15384964152580632  0.6133212526962865  0.4959307376961091  1.0000
  H   H65       1.0  0.5378815475188188  0.19698195296718876  0.9576585500000246  1.0000
  H   H66       1.0  0.5378815479105241  0.8030180480014505  0.4576585501411813  1.0000
  H   H67       1.0  0.0378815475452251  0.6969819516149489  0.9576585499348134  1.0000
  H   H68       1.0  0.03788154793693053  0.3030180475171309  0.4576585500759702  1.0000
  C   C1        1.0  0.9207535793980928  0.7653834729666065  0.4415674322298061  1.0000
  C   C2        1.0  0.9207535790063873  0.23461652616547327  0.9415674320886493  1.0000
  C   C3        1.0  0.42075357942449915  0.2653834724822869  0.44156743216459504  1.0000
  C   C4        1.0  0.4207535790327937  0.7346165266497929  0.9415674320234382  1.0000
  C   C5        1.0  0.849887986246115  0.585269253704875  0.4158831395320978  1.0000
  C   C6        1.0  0.8498879865274952  0.4147307472637643  0.9158831394737372  1.0000
  C   C7        1.0  0.34988798627252127  0.08526925322055538  0.4158831394668867  1.0000
  C   C8        1.0  0.34988798655390146  0.9147307459115245  0.9158831394085262  1.0000
  C   C9        1.0  0.8654428695823356  0.4250448194421387  0.3709397559485974  1.0000
  C   C10       1.0  0.8654428698601389  0.5749551815265007  0.8709397563267074  1.0000
  C   C11       1.0  0.365442869605165  0.9250448180898988  0.37093975631985693  1.0000
  C   C12       1.0  0.36544286988654523  0.074955181042181  0.8709397562614963  1.0000
  C   C13       1.0  0.7997102953235425  0.25557040454981805  0.3467990041290039  1.0000
  C   C14       1.0  0.7997102956049229  0.7444295964188212  0.8467990040706433  1.0000
  C   C15       1.0  0.29971029534994886  0.7555704031975782  0.34679900406379277  1.0000
  C   C16       1.0  0.29971029563132917  0.24442959593450156  0.8467990040054321  1.0000
  C   C17       1.0  0.7180808499258278  0.25152919313539773  0.3671872673215901  1.0000
  C   C18       1.0  0.7180808495305453  0.7484708059966821  0.8671872676169039  1.0000
  C   C19       1.0  0.21808084994865704  0.7515291936197174  0.36718726769284954  1.0000
  C   C20       1.0  0.2180808495569516  0.24847080551236245  0.8671872675516928  1.0000
  C   C21       1.0  0.7008744030922444  0.4125379999173347  0.41148136686895176  1.0000
  C   C22       1.0  0.7008744033700476  0.5874620010513046  0.9114813672470619  1.0000
  C   C23       1.0  0.20087440311865068  0.9125380004016543  0.4114813668037406  1.0000
  C   C24       1.0  0.20087440339645393  0.08746200056698496  0.9114813671818506  1.0000
  C   C25       1.0  0.76771409015883  0.5767211730540613  0.4362554567311269  1.0000
  C   C26       1.0  0.7677140897671245  0.42327882607801853  0.93625545658997  1.0000
  C   C27       1.0  0.26771409018523623  0.07672117256974167  0.43625545666591575  1.0000
  C   C28       1.0  0.26771408979353084  0.9232788265623382  0.936255456524759  1.0000
  C   C29       1.0  0.5632131911641802  0.37507350682024276  0.25461444056994126  1.0000
  C   C30       1.0  0.5632131914455606  0.6249264941483966  0.7546144405115808  1.0000
  C   C31       1.0  0.06321319119058662  0.8750735073045623  0.25461444050473014  1.0000
  C   C32       1.0  0.06321319147196684  0.12492649366407695  0.7546144404463695  1.0000
  C   C33       1.0  0.4896003588300295  0.5645736745567952  0.23875488072092702  1.0000
  C   C34       1.0  0.4896003591114097  0.43542632457528463  0.7387548806625664  1.0000
  C   C35       1.0  0.9896003588036231  0.06457367590903502  0.23875488078613813  1.0000
  C   C36       1.0  0.9896003590850033  0.9354263250596043  0.7387548807277775  1.0000
  C   C37       1.0  0.8656170065487726  0.5726207381057868  0.1002240936492501  1.0000
  C   C38       1.0  0.865617006157067  0.42737926102629287  0.6002240935080932  1.0000
  C   C39       1.0  0.3656170065751788  0.07262073762146723  0.10022409358403898  1.0000
  C   C40       1.0  0.3656170061834733  0.9273792615106126  0.6002240934428822  1.0000
  C   C41       1.0  0.8022849483910875  0.7452708967725141  0.07540244256518001  1.0000
  C   C42       1.0  0.8022849486724677  0.2547291023595657  0.5754024425068194  1.0000
  C   C43       1.0  0.30228494841749387  0.24527089628819448  0.07540244249996889  1.0000
  C   C44       1.0  0.30228494869887407  0.7547291028438853  0.5754024424416083  1.0000
  C   C45       1.0  0.7477363569803905  0.8565834653031962  0.11133513450168175  1.0000
  C   C46       1.0  0.7477363565886851  0.14341653566544316  0.611335134360525  1.0000
  C   C47       1.0  0.24773635700679686  0.3565834648188765  0.11133513443647063  1.0000
  C   C48       1.0  0.24773635661509144  0.6434165343132033  0.6113351342953139  1.0000
  C   C49       1.0  0.7611661782793294  0.7908015040501811  0.1716325568560492  1.0000
  C   C50       1.0  0.761166177884047  0.20919849691845815  0.671632557151363  1.0000
  C   C51       1.0  0.26116617830215866  0.29080150356586154  0.17163255722730866  1.0000
  C   C52       1.0  0.26116617791045327  0.7091984974027778  0.6716325570861519  1.0000
  C   C53       1.0  0.8270743680778246  0.6188943475635967  0.1931997350155619  1.0000
  C   C54       1.0  0.8270743683592048  0.38110565340504254  0.6931997349572012  1.0000
  C   C55       1.0  0.32707436810423085  0.11889434707927708  0.19319973495035078  1.0000
  C   C56       1.0  0.32707436838203413  0.8811056538893622  0.6931997353284608  1.0000
  C   C57       1.0  0.5824160603195161  0.38111648543291093  0.09660754383574797  1.0000
  C   C58       1.0  0.5824160606008963  0.6188835136991688  0.5966075437773873  1.0000
  C   C59       1.0  0.08241606034592248  0.8811164859172306  0.09660754377053685  1.0000
  C   C60       1.0  0.08241606062730274  0.11888351321484923  0.5966075437121763  1.0000
  C   C61       1.0  0.6497909369839683  0.21895651030711377  0.12144948143502798  1.0000
  C   C62       1.0  0.6497909365922628  0.7810434888249661  0.6214494812938712  1.0000
  C   C63       1.0  0.14979093701037455  0.7189565107914334  0.12144948136981684  1.0000
  C   C64       1.0  0.14979093661866913  0.28104349017720587  0.6214494812286601  1.0000
  C   C65       1.0  0.6775924766350762  0.03441475934237068  0.08605490213569014  1.0000
  C   C66       1.0  0.6775924769164563  0.9655852416262687  0.5860549020773296  1.0000
  C   C67       1.0  0.17759247666148234  0.5344147598266903  0.08605490207047903  1.0000
  C   C68       1.0  0.17759247694286256  0.465585241141949  0.5860549020121184  1.0000
  C   C69       1.0  0.6361202286073186  0.0254297979202231  0.026033571079146924  1.0000
  C   C70       1.0  0.6361202288886988  0.9745702012118568  0.5260335710207864  1.0000
  C   C71       1.0  0.13612022863372494  0.5254297984045427  0.02603357101393579  1.0000
  C   C72       1.0  0.13612022891510517  0.47457020072753703  0.5260335709555751  1.0000
  C   C73       1.0  0.5697844458770058  0.1959778305954053  0.004324565843165776  1.0000
  C   C74       1.0  0.5697844454853004  0.8040221703732341  0.504324565702009  1.0000
  C   C75       1.0  0.06978444590341217  0.6959778292431654  0.004324565777954648  1.0000
  C   C76       1.0  0.06978444551170673  0.3040221698889144  0.5043245656367978  1.0000
  N   N1        1.0  0.547334389276859  0.2196785977477915  0.3033924075250621  1.0000
  N   N2        1.0  0.5473343888851536  0.7803214032208478  0.8033924073839052  1.0000
  N   N3        1.0  0.047334389303265244  0.7196785963955517  0.30339240745985097  1.0000
  N   N4        1.0  0.047334388911559805  0.2803214027365281  0.8033924073186943  1.0000
  N   N5        1.0  0.8778086801942894  0.5112302568930069  0.15799107092820297  1.0000
  N   N6        1.0  0.8778086804756697  0.4887697422390728  0.6579910708698423  1.0000
  N   N7        1.0  0.3778086802206957  0.011230258245246802  0.15799107086299183  1.0000
  N   N8        1.0  0.37780868050207594  0.9887697427233925  0.6579910708046313  1.0000
  N   N9        1.0  0.5429393013837015  0.3688901948604314  0.03913859006593549  1.0000
  N   N10       1.0  0.542939300991996  0.6311098061082079  0.5391385899247786  1.0000
  N   N11       1.0  0.04293930141010781  0.8688901953447511  0.039138590000724345  1.0000
  N   N12       1.0  0.04293930101840237  0.13110980562388824  0.5391385898595676  1.0000
  O   O1        1.0  0.9810980232514125  0.8333412393047616  0.415133982743154  1.0000
  O   O2        1.0  0.9810980235327929  0.16665876166387775  0.9151339826847935  1.0000
  O   O3        1.0  0.48109802327781886  0.33334123882044187  0.4151339826779429  1.0000
  O   O4        1.0  0.4810980235591991  0.6666587621481974  0.9151339826195822  1.0000
  O   O5        1.0  0.9131702705847363  0.843020052901997  0.49547032108620254  1.0000
  O   O6        1.0  0.9131702701930308  0.1569799480666422  0.9954703209450457  1.0000
  O   O7        1.0  0.4131702706111426  0.34302005241767747  0.4954703210209914  1.0000
  O   O8        1.0  0.41317027021943714  0.6569799467144024  0.9954703208798346  1.0000
  O   O9        1.0  0.6644346126287727  0.9191222865582226  0.286827426832969  1.0000
  O   O10       1.0  0.6644346129101528  0.08087771441041668  0.7868274267746083  1.0000
  O   O11       1.0  0.16443461265517886  0.41912228607390295  0.28682742676775785  1.0000
  O   O12       1.0  0.16443461293655912  0.5808777148947363  0.7868274267093973  1.0000
  O   O13       1.0  0.6001817139397208  0.9101803538883517  0.38035657715684273  1.0000
  O   O14       1.0  0.600181714221101  0.08981964708028756  0.8803565770984823  1.0000
  O   O15       1.0  0.10018171396612706  0.4101803534040321  0.3803565770916316  1.0000
  O   O16       1.0  0.10018171424750728  0.5898196457280477  0.880356577033271  1.0000
  O   O17       1.0  0.4303614987075246  0.598361300257208  0.2682995519770048  1.0000
  O   O18       1.0  0.4303614989889048  0.4016387007114312  0.7682995519186441  1.0000
  O   O19       1.0  0.9303614986811183  0.09836129977288845  0.2682995520422159  1.0000
  O   O20       1.0  0.9303614989624984  0.901638701195751  0.7682995519838554  1.0000
  O   O21       1.0  0.49822159234253816  0.6870295090193904  0.19021862617480728  1.0000
  O   O22       1.0  0.4982215919508327  0.3129704919492488  0.6902186260336505  1.0000
  O   O23       1.0  0.9982215923161318  0.18702950853507083  0.19021862624001842  1.0000
  O   O24       1.0  0.9982215919244264  0.8129704924335684  0.6902186260988616  1.0000
  S   S1        1.0  0.6313543517673765  0.04700332229348748  0.3340654621573091  1.0000
  S   S2        1.0  0.631354351375671  0.9529966786751518  0.8340654620161523  1.0000
  S   S3        1.0  0.13135435179378283  0.5470033227778072  0.334065462092098  1.0000
  S   S4        1.0  0.13135435140207738  0.45299667819083217  0.8340654619509412  1.0000
