data_image0
_chemical_formula_structural       H24C6N12S6I20
_chemical_formula_sum              "H24 C6 N12 S6 I20"
_cell_length_a       8.826520414317496
_cell_length_b       11.2116937602035
_cell_length_c       15.522154617061336
_cell_angle_alpha    70.38261624352165
_cell_angle_beta     85.32587175510562
_cell_angle_gamma    73.37574830525554

_space_group_name_H-M_alt    "P 1"
_space_group_IT_number       1

loop_
  _space_group_symop_operation_xyz
  'x, y, z'

loop_
  _atom_site_type_symbol
  _atom_site_label
  _atom_site_symmetry_multiplicity
  _atom_site_fract_x
  _atom_site_fract_y
  _atom_site_fract_z
  _atom_site_occupancy
  H   H1        1.0  0.48996311404531706  0.1286332605866794  0.26149600269159723  1.0000
  H   H2        1.0  0.5100368854469076  0.8713667392582719  0.7385039974907769  1.0000
  H   H3        1.0  0.592704140115142  0.18154199096098683  0.3268964612059111  1.0000
  H   H4        1.0  0.40729585937708257  0.8184580088839645  0.673103538976463  1.0000
  H   H5        1.0  0.24737903341212272  0.08474241806849962  0.3124472276604404  1.0000
  H   H6        1.0  0.7526209672009533  0.915257582085755  0.6875527718394805  1.0000
  H   H7        1.0  0.1751175415366984  0.09907001043902472  0.4169823509093562  1.0000
  H   H8        1.0  0.8248824579555263  0.9009299894059266  0.583017649273018  1.0000
  H   H9        1.0  0.656247733467134  0.5800818570726498  0.9260322947241711  1.0000
  H   H10       1.0  0.34375226716020585  0.4199181427656565  0.07396770545976081  1.0000
  H   H11       1.0  0.49506978781189165  0.5367830430889857  0.8981078279155752  1.0000
  H   H12       1.0  0.5049302116803329  0.4632169567559655  0.10189217226679893  1.0000
  H   H13       1.0  0.8847425894074259  0.5654695631327784  0.8301696115991413  1.0000
  H   H14       1.0  0.11525741007053518  0.43453043702812105  0.16983038789922197  1.0000
  H   H15       1.0  0.8822989794772493  0.5114742315923259  0.7372020789939068  1.0000
  H   H16       1.0  0.11770102001497529  0.48852576825262534  0.26279792118846734  1.0000
  H   H17       1.0  0.890236400949996  0.10048296626944685  0.797836846620846  1.0000
  H   H18       1.0  0.1097635996773437  0.8995170335688597  0.20216315356308612  1.0000
  H   H19       1.0  0.7474672881855116  0.12121594166560831  0.8811634000277404  1.0000
  H   H20       1.0  0.2525327121106565  0.8787840591056638  0.11883660015158047  1.0000
  H   H21       1.0  0.13013264672123256  0.14965950305922  0.8025198495683243  1.0000
  H   H22       1.0  0.8698673539061073  0.8503404967790862  0.1974801506156078  1.0000
  H   H23       1.0  0.16220674228640095  0.20984920990819864  0.8873452979577402  1.0000
  H   H24       1.0  0.8377932572058238  0.7901507899367526  0.11265470222463396  1.0000
  C   C1        1.0  0.38392466222372473  0.14718882218707563  0.3803591721919138  1.0000
  C   C2        1.0  0.6160753372542362  0.8528111779738239  0.6196408273064493  1.0000
  C   C3        1.0  0.6805691908044574  0.5219913887403975  0.8117452713395261  1.0000
  C   C4        1.0  0.31943080868776746  0.4780086111045538  0.18825472884284805  1.0000
  C   C5        1.0  0.9492127667807507  0.16889696530381268  0.8938134493228727  1.0000
  C   C6        1.0  0.0507872326972104  0.8311030348570866  0.10618655017549046  1.0000
  N   N1        1.0  0.4938823164642171  0.1576771988190184  0.3167331881189031  1.0000
  N   N2        1.0  0.5061176841631225  0.8423228010192881  0.6832668120650289  1.0000
  N   N3        1.0  0.25912010486299747  0.10936122762001743  0.36851269999529707  1.0000
  N   N4        1.0  0.7408798942980557  0.8906387731578994  0.6314873001824659  1.0000
  N   N5        1.0  0.6040416066197851  0.5520284138331014  0.8824597379261266  1.0000
  N   N6        1.0  0.39595839285817586  0.44797158632779793  0.11754026157223639  1.0000
  N   N7        1.0  0.8238633046581908  0.538468157539567  0.7900649235079372  1.0000
  N   N8        1.0  0.17613669483403377  0.4615318423053843  0.20993507667443687  1.0000
  N   N9        1.0  0.8552928731883223  0.12782213567600995  0.8546881990717926  1.0000
  N   N10       1.0  0.1447071263039025  0.8721778641689414  0.14531180111058142  1.0000
  N   N11       1.0  0.0901529805419164  0.17727923996253467  0.8583192564933005  1.0000
  N   N12       1.0  0.9098470200711596  0.82272076019172  0.14168074300662037  1.0000
  S   S1        1.0  0.38986953690160137  0.18351793210889691  0.48003140180439596  1.0000
  S   S2        1.0  0.6101304625906233  0.8164820677360543  0.5199685983779782  1.0000
  S   S3        1.0  0.5780189632029252  0.4645712899548047  0.7508873533786448  1.0000
  S   S4        1.0  0.4219810362750358  0.5354287102060946  0.24911264611971834  1.0000
  S   S5        1.0  0.9001789295730791  0.21420602622251728  0.9909562510935925  1.0000
  S   S6        1.0  0.09982106990488185  0.7857939739383822  0.009043748404770555  1.0000
  I   I1        1.0  0.945413182217374  0.3379068030617958  0.4665973158644207  1.0000
  I   I2        1.0  0.05458681727485077  0.6620931967831554  0.5334026843179533  1.0000
  I   I3        1.0  0.6446295956731066  0.24413239353839383  0.4706301841879973  1.0000
  I   I4        1.0  0.3553704038191181  0.7558676063065575  0.5293698159943768  1.0000
  I   I5        1.0  0.760961929914451  0.4128255908353816  0.6300774168025074  1.0000
  I   I6        1.0  0.2390380707128887  0.5871744090029248  0.3699225833814247  1.0000
  I   I7        1.0  0.7274082126670406  0.6227741925764906  0.34688595560406693  1.0000
  I   I8        1.0  0.27259178796029915  0.37722580726181576  0.6531140445798652  1.0000
  I   I9        1.0  0.5235057658470762  0.8632632282791016  0.24095543370986672  1.0000
  I   I10       1.0  0.4764942347802635  0.13673677155920477  0.7590445664740654  1.0000
  I   I11       1.0  0.6274492324651846  0.17992294976690612  0.03339288767571355  1.0000
  I   I12       1.0  0.37255076816215515  0.8200770500714004  0.9666071125082185  1.0000
  I   I13       1.0  0.3036974019834962  0.14984919141603517  0.10197593350967499  1.0000
  I   I14       1.0  0.6963025975087287  0.8501508084289159  0.8980240666726992  1.0000
  I   I15       1.0  0.21120292435370905  0.4680896521486567  0.9066619335339741  1.0000
  I   I16       1.0  0.7887970751385156  0.5319103476962945  0.09333806664840004  1.0000
  I   I17       1.0  0.13257983902351037  0.7439792212316829  0.7816998851729205  1.0000
  I   I18       1.0  0.8674201604544507  0.2560207789292163  0.2183001143254425  1.0000
  I   I19       1.0  0.057433121856296246  0.022935940939066916  0.6647136928245616  1.0000
  I   I20       1.0  0.9425668776359284  0.9770640589058844  0.3352863073578126  1.0000
