data_image0
_chemical_formula_structural       H8C18N2F16I2
_chemical_formula_sum              "H8 C18 N2 F16 I2"
_cell_length_a       5.304575438088136
_cell_length_b       7.217398778541473
_cell_length_c       16.045250500367437
_cell_angle_alpha    101.13375376752562
_cell_angle_beta     96.24761978124168
_cell_angle_gamma    108.16485978608597

_space_group_name_H-M_alt    "P 1"
_space_group_IT_number       1

loop_
  _space_group_symop_operation_xyz
  'x, y, z'

loop_
  _atom_site_type_symbol
  _atom_site_label
  _atom_site_symmetry_multiplicity
  _atom_site_fract_x
  _atom_site_fract_y
  _atom_site_fract_z
  _atom_site_occupancy
  H   H1        1.0  0.6213918630857059  0.2881520573084941  0.2095462953868804  1.0000
  H   H2        1.0  0.378608136522682  0.7118479421708348  0.7904537049266704  1.0000
  H   H3        1.0  0.4253788336381644  0.50569644599886  0.1436046433227659  1.0000
  H   H4        1.0  0.5746211656420602  0.494303553145411  0.8563953563450545  1.0000
  H   H5        1.0  0.720332037331094  0.3170882403787063  0.9116035463618793  1.0000
  H   H6        1.0  0.2796679647739022  0.6829117605904094  0.08839645397227551  1.0000
  H   H7        1.0  0.9044231572913966  0.11103076259668931  0.9872379507839226  1.0000
  H   H8        1.0  0.09557684481359949  0.8889692383724261  0.012762049550232198  1.0000
  C   C1        1.0  0.5550242406608445  0.43441122563909523  0.020838063213852474  1.0000
  C   C2        1.0  0.4449757589475432  0.5655887738402338  0.9791619370996983  1.0000
  C   C3        1.0  0.6391250028797569  0.29914738780770567  0.14342167749225115  1.0000
  C   C4        1.0  0.36087499699838754  0.7008526128007538  0.8565783221869266  1.0000
  C   C5        1.0  0.5285755427519045  0.4210651928676254  0.10570996880824328  1.0000
  C   C6        1.0  0.4714244565283201  0.5789348062766455  0.8942900308595771  1.0000
  C   C7        1.0  0.6922147454107158  0.3182354315651561  0.9777815357746683  1.0000
  C   C8        1.0  0.3077852541976722  0.681764567914173  0.022218464538882574  1.0000
  C   C9        1.0  0.7969777303427603  0.20083885634577192  0.020457243114795486  1.0000
  C   C10       1.0  0.20302226926562736  0.799161143133557  0.9795427571987553  1.0000
  C   C11       1.0  0.1751248602955948  0.8477835694207605  0.28543372898646  1.0000
  C   C12       1.0  0.8248751393127931  0.15221643005856864  0.7145662713270908  1.0000
  C   C13       1.0  0.0014840625897328149  0.767316142055214  0.35163310434559675  1.0000
  C   C14       1.0  0.9985159366904919  0.23268385708905695  0.6483668953222236  1.0000
  C   C15       1.0  0.13074951066924534  0.6615869604095657  0.41296653388580135  1.0000
  C   C16       1.0  0.8692504889391425  0.3384130390697633  0.5870334664277495  1.0000
  C   C17       1.0  0.9299601247274312  0.5367999508594494  0.4636578914915516  1.0000
  C   C18       1.0  0.07003987515071337  0.4632000497490101  0.5363421081876262  1.0000
  N   N1        1.0  0.773003412408307  0.1911408416848416  0.10207208624247031  1.0000
  N   N2        1.0  0.22699658746983759  0.8088591589236179  0.8979279134367075  1.0000
  F   F1        1.0  0.2153364018425262  0.6886742209981348  0.2323298676794731  1.0000
  F   F2        1.0  0.7846635983637815  0.3113257799453827  0.767670132645435  1.0000
  F   F3        1.0  0.42214190787987876  0.9763196963323615  0.3293189684794869  1.0000
  F   F4        1.0  0.5778580917285091  0.02368030314696749  0.6706810318340639  1.0000
  F   F5        1.0  0.9574373484757975  0.9257887100019386  0.40162003581658806  1.0000
  F   F6        1.0  0.04256265362919861  0.07421129096717696  0.5983799645175668  1.0000
  F   F7        1.0  0.7580778116341084  0.6337637728436715  0.3061120575842012  1.0000
  F   F8        1.0  0.24192218764611634  0.3662362263005994  0.6938879420836191  1.0000
  F   F9        1.0  0.22974080633273047  0.5319466925534762  0.36457098392052634  1.0000
  F   F10       1.0  0.7702591929474943  0.46805330659079475  0.635429015747294  1.0000
  F   F11       1.0  0.33911725749357313  0.8075114753187285  0.4698901502640059  1.0000
  F   F12       1.0  0.6608827427127345  0.19248852562478908  0.5301098500609023  1.0000
  F   F13       1.0  0.7519478459863751  0.3728677631715654  0.4048821912144311  1.0000
  F   F14       1.0  0.24805215362201277  0.6271322363077636  0.5951178090991198  1.0000
  F   F15       1.0  0.792191830018442  0.6515372907603305  0.5010220479786903  1.0000
  F   F16       1.0  0.2078081698597027  0.3484627098481291  0.4989779517004875  1.0000
  I   I1        1.0  0.9851103694577328  0.9972704412017707  0.20344183456275935  1.0000
  I   I2        1.0  0.014889630420411722  0.0027295594066887824  0.7965581651164184  1.0000
