data_image0
_chemical_formula_structural       H18C32N2O2F8I4
_chemical_formula_sum              "H18 C32 N2 O2 F8 I4"
_cell_length_a       8.702160956762869
_cell_length_b       5.922487762035839
_cell_length_c       16.350816325171248
_cell_angle_alpha    90.0
_cell_angle_beta     101.22516203850037
_cell_angle_gamma    90.0

_space_group_name_H-M_alt    "P 1"
_space_group_IT_number       1

loop_
  _space_group_symop_operation_xyz
  'x, y, z'

loop_
  _atom_site_type_symbol
  _atom_site_label
  _atom_site_symmetry_multiplicity
  _atom_site_fract_x
  _atom_site_fract_y
  _atom_site_fract_z
  _atom_site_occupancy
  H   H1        1.0  0.8593735571595382  0.5193058176861097  0.34511878234687643  1.0000
  H   H2        1.0  0.14062644286333428  0.019305817857983458  0.654881217872726  1.0000
  H   H3        1.0  0.98549725181527  0.15783109523533762  0.24812086401581224  1.0000
  H   H4        1.0  0.014502748207602452  0.6578310950634639  0.7518791362037903  1.0000
  H   H5        1.0  0.7982601288372629  0.08539424990321146  0.11707903322214994  1.0000
  H   H6        1.0  0.20173987118560957  0.5853942497313378  0.8829209669974526  1.0000
  H   H7        1.0  0.06360375395342506  0.5819944453232864  0.4676350621922224  1.0000
  H   H8        1.0  0.9363962460694475  0.08199444549516004  0.5323649380273802  1.0000
  H   H9        1.0  0.29722942125087165  0.2078194129652221  0.4956675752060967  1.0000
  H   H10       1.0  0.7027705785309194  0.7078194127933484  0.5043324243900277  1.0000
  H   H11       1.0  0.6742327431389975  0.44913842575600804  0.21402141382112166  1.0000
  H   H12       1.0  0.32576725688387503  0.9491384255841343  0.785978586398481  1.0000
  H   H13       1.0  0.5540543055712174  0.869904173213355  0.04764107567944086  1.0000
  H   H14       1.0  0.44594569421057356  0.36990417338522863  0.9523589239166834  1.0000
  H   H15       1.0  0.5225476352490367  0.5914392871275305  0.08258538341746721  1.0000
  H   H16       1.0  0.4774523647738359  0.0914392872994041  0.9174146168021353  1.0000
  H   H17       1.0  0.6766641884367466  0.6471618708220821  0.028943796379087543  1.0000
  H   H18       1.0  0.32333581158612584  0.14716187099395578  0.9710562038405149  1.0000
  C   C1        1.0  0.7152760965162892  0.3650311097066506  0.8524660551760945  1.0000
  C   C2        1.0  0.28472390350658333  0.8650311095347768  0.14753394504350806  1.0000
  C   C3        1.0  0.7767328755404629  0.1644656484127836  0.8279398922413089  1.0000
  C   C4        1.0  0.22326712448240962  0.6644656482409099  0.17206010797829369  1.0000
  C   C5        1.0  0.5660221477725393  0.4314042869582444  0.7131458538646918  1.0000
  C   C6        1.0  0.4339778522503331  0.9314042867863708  0.2868541463549107  1.0000
  C   C7        1.0  0.6121631429162001  0.4961707019196738  0.7962079769242041  1.0000
  C   C8        1.0  0.3878368568655909  0.9961707017478  0.20379202267192034  1.0000
  C   C9        1.0  0.7315471185469198  0.09919819400319849  0.7447514687148832  1.0000
  C   C10       1.0  0.26845288123487115  0.5991981938313248  0.25524853088124116  1.0000
  C   C11       1.0  0.6274553462313774  0.23061957489473908  0.6887177753866596  1.0000
  C   C12       1.0  0.3725446535504136  0.730619576411345  0.3112822242094648  1.0000
  C   C13       1.0  0.9369413263713595  0.843771859189493  0.3061208984661658  1.0000
  C   C14       1.0  0.06305867365151295  0.3437718593613667  0.6938791017534367  1.0000
  C   C15       1.0  0.04521865245729897  0.8809547912356542  0.3841370152478051  1.0000
  C   C16       1.0  0.954781347324492  0.3809547914075279  0.6158629843483192  1.0000
  C   C17       1.0  0.8477674362550587  0.6438780970463613  0.2951479506603019  1.0000
  C   C18       1.0  0.15223256376781383  0.14387809721823508  0.7048520495593006  1.0000
  C   C19       1.0  0.9177719397908671  0.002050028718983198  0.24084563029584413  1.0000
  C   C20       1.0  0.08222806023200552  0.5020500285471096  0.7591543699237585  1.0000
  C   C21       1.0  0.8117200897978584  0.960516544494225  0.16701754564425558  1.0000
  C   C22       1.0  0.1882799113714928  0.46051654466609865  0.8329824545682737  1.0000
  C   C23       1.0  0.0957848752629916  0.7527977986850959  0.45418213786005857  1.0000
  C   C24       1.0  0.9042151245187994  0.25279779885696957  0.5458178617360658  1.0000
  C   C25       1.0  0.22096679320358834  0.06665002206172753  0.4733088281967407  1.0000
  C   C26       1.0  0.7790332065782026  0.5666500218898539  0.5266911713993836  1.0000
  C   C27       1.0  0.74242203288954  0.6048037503700501  0.2210522633382174  1.0000
  C   C28       1.0  0.25757796827981133  0.10480375054192369  0.7789477368743118  1.0000
  C   C29       1.0  0.7222804511525878  0.7619188576337144  0.15563364824627438  1.0000
  C   C30       1.0  0.2777195486292033  0.2619188561171083  0.8443663513498499  1.0000
  C   C31       1.0  0.6122080820471552  0.7154971542808833  0.07481716984045457  1.0000
  C   C32       1.0  0.3877919179757173  0.2154971544527569  0.925182830379148  1.0000
  N   N1        1.0  0.2067981934526855  0.8736745077243248  0.509668986410756  1.0000
  N   N2        1.0  0.7932018065701871  0.3736745078961985  0.4903310138088465  1.0000
  O   O1        1.0  0.1257966738969877  0.08452792308141718  0.396933152174078  1.0000
  O   O2        1.0  0.8742033258848033  0.5845279229095435  0.6030668474220464  1.0000
  F   F1        1.0  0.7884195399743643  0.9076750220505512  0.7170384562676673  1.0000
  F   F2        1.0  0.2115804598074267  0.40767502222242485  0.28296154332845697  1.0000
  F   F3        1.0  0.7544933207414137  0.4326670350297456  0.9330449912708464  1.0000
  F   F4        1.0  0.2455066790403772  0.9326670348578718  0.06695500832527797  1.0000
  F   F5        1.0  0.5869758721622149  0.15967569339052987  0.6085900210669358  1.0000
  F   F6        1.0  0.4130241278606577  0.6596756932186562  0.39140997915266673  1.0000
  F   F7        1.0  0.5559816141734982  0.68870866161113  0.8245346440874404  1.0000
  F   F8        1.0  0.4440183856082927  0.18870866178300372  0.17546535550868395  1.0000
  I   I1        1.0  0.411194270570152  0.6310370962616071  0.6277454793108437  1.0000
  I   I2        1.0  0.5888057294527206  0.13103709643348077  0.3722545209087588  1.0000
  I   I3        1.0  0.925548871748869  0.9698408659987774  0.9156149213289322  1.0000
  I   I4        1.0  0.074451128032922  0.4698408661706512  0.08438507826719223  1.0000
