data_image0
_chemical_formula_structural       H24C80N8O4F32I16
_chemical_formula_sum              "H24 C80 N8 O4 F32 I16"
_cell_length_a       7.100185703630493
_cell_length_b       12.821759060997689
_cell_length_c       25.96297550878501
_cell_angle_alpha    90.0
_cell_angle_beta     90.4610858726998
_cell_angle_gamma    90.0

_space_group_name_H-M_alt    "P 1"
_space_group_IT_number       1

loop_
  _space_group_symop_operation_xyz
  'x, y, z'

loop_
  _atom_site_type_symbol
  _atom_site_label
  _atom_site_symmetry_multiplicity
  _atom_site_fract_x
  _atom_site_fract_y
  _atom_site_fract_z
  _atom_site_occupancy
  H   H1        1.0  0.6455823194793947  0.32526953908268824  0.4851125397300904  1.0000
  H   H2        1.0  0.8544176798610935  0.8252695390437821  0.014887460391551144  1.0000
  H   H3        1.0  0.35441768061717943  0.6747304608394996  0.5148874603573844  1.0000
  H   H4        1.0  0.1455823202354806  0.17473046087840566  0.9851125396959237  1.0000
  H   H5        1.0  0.8437613951964618  0.6218508210978335  0.5437853105833584  1.0000
  H   H6        1.0  0.6562386042362759  0.12185082113673962  0.9562146893558878  1.0000
  H   H7        1.0  0.1562386049001124  0.3781491788243543  0.4562146895041163  1.0000
  H   H8        1.0  0.34376139584442117  0.8781491787854482  0.04378531034641276  1.0000
  H   H9        1.0  0.6345280491095617  0.4039436356088405  0.3986252791995935  1.0000
  H   H10       1.0  0.8654719516392965  0.9039436355699344  0.10137472092080571  1.0000
  H   H11       1.0  0.3654719509870124  0.5960563643133473  0.6013747208878814  1.0000
  H   H12       1.0  0.13452804845727767  0.09605636435225336  0.8986252791666692  1.0000
  H   H13       1.0  0.7516947162236722  0.354225310146063  0.6411320793936797  1.0000
  H   H14       1.0  0.7483052832090653  0.854225310107157  0.8588679205455668  1.0000
  H   H15       1.0  0.24830528387290188  0.6457746897761247  0.35886792069379525  1.0000
  H   H16       1.0  0.2516947168875087  0.1457746898150309  0.14113207954190812  1.0000
  H   H17       1.0  0.7990380675332192  0.7168202940232786  0.3804487274790545  1.0000
  H   H18       1.0  0.7009619318072691  0.2168202940621847  0.11955127264258703  1.0000
  H   H19       1.0  0.20096193256335504  0.2831797058989092  0.6195512726084202  1.0000
  H   H20       1.0  0.29903806828930496  0.7831797058600031  0.8804487274448878  1.0000
  H   H21       1.0  0.8517716560446719  0.540847217375523  0.6315621000824935  1.0000
  H   H22       1.0  0.6482283447964358  0.040847217414429184  0.8684378998555103  1.0000
  H   H23       1.0  0.14822834403602517  0.4591527825466647  0.3684378996198069  1.0000
  H   H24       1.0  0.3517716553001383  0.9591527825077587  0.13156210023196444  1.0000
  C   C1        1.0  0.6292196250342849  0.9883790780743235  0.6426810533626044  1.0000
  C   C2        1.0  0.87078037441433  0.4883790781132296  0.8573189469618161  1.0000
  C   C3        1.0  0.37078037506228934  0.011620921847864292  0.3573189467248703  1.0000
  C   C4        1.0  0.12921962568224413  0.5116209218089582  0.14268105312565874  1.0000
  C   C5        1.0  0.6177448217849515  0.8891512487298996  0.6198512608672153  1.0000
  C   C6        1.0  0.8822551776636632  0.38915124876880564  0.8801487394572054  1.0000
  C   C7        1.0  0.38225517831162265  0.11084875119228824  0.38014873922025966  1.0000
  C   C8        1.0  0.1177448224329109  0.6108487511533821  0.11985126063026945  1.0000
  C   C9        1.0  0.6354449253074079  0.9942114408292497  0.6963312371154708  1.0000
  C   C10       1.0  0.8645550755495769  0.4942114400882316  0.8036687632077074  1.0000
  C   C11       1.0  0.3645550747891662  0.005788559872862313  0.30366876297200396  1.0000
  C   C12       1.0  0.1354449245469973  0.5057885598339562  0.19633123687976745  1.0000
  C   C13       1.0  0.616380529700874  0.8076949926084612  0.7046389387527588  1.0000
  C   C14       1.0  0.8836194697318638  0.3076949926473674  0.7953610611864874  1.0000
  C   C15       1.0  0.38361946898733024  0.19230500731372652  0.29536106133595835  1.0000
  C   C16       1.0  0.1163805303647104  0.6923050072748205  0.20463893890098736  1.0000
  C   C17       1.0  0.6296954814571405  0.9057218915714339  0.7273951956440425  1.0000
  C   C18       1.0  0.8703045179755972  0.40572189161034006  0.7726048042952037  1.0000
  C   C19       1.0  0.3703045186394337  0.09427810835075384  0.27260480444343227  1.0000
  C   C20       1.0  0.12969548212097698  0.5942781083118478  0.2273951957922711  1.0000
  C   C21       1.0  0.6112893526969227  0.8006043157701674  0.6510495872978868  1.0000
  C   C22       1.0  0.8887106467358149  0.30060431580907354  0.8489504126413594  1.0000
  C   C23       1.0  0.3887106473996514  0.19939568415202033  0.348950412789588  1.0000
  C   C24       1.0  0.11128935336075925  0.6993956841131143  0.15104958744611535  1.0000
  C   C25       1.0  0.6288155852724768  0.5605583029448018  0.18236948284286048  1.0000
  C   C26       1.0  0.8711844154605043  0.06055830298370789  0.3176305168923644  1.0000
  C   C27       1.0  0.3711844148082203  0.439441696977386  0.81763051685944  1.0000
  C   C28       1.0  0.12881558462019263  0.9394416969384799  0.682369482809936  1.0000
  C   C29       1.0  0.6161581976857851  0.6567502079815846  0.15643832265384391  1.0000
  C   C30       1.0  0.8838418030630731  0.15675020802049075  0.34356167746655525  1.0000
  C   C31       1.0  0.38384180241078897  0.3432497919406032  0.8435616774336309  1.0000
  C   C32       1.0  0.11615819703350103  0.8432497919016969  0.6564383226209196  1.0000
  C   C33       1.0  0.6194774660486264  0.5672992625579732  0.07385154386086445  1.0000
  C   C34       1.0  0.8805225332918618  0.0672992625968793  0.42614845626077713  1.0000
  C   C35       1.0  0.3805225340479477  0.4327007381441388  0.9261484562266105  1.0000
  C   C36       1.0  0.11947746680471232  0.9327007381052326  0.5738515438266977  1.0000
  C   C37       1.0  0.6316056500447514  0.4718400097224452  0.09930447575665019  1.0000
  C   C38       1.0  0.8683943492957369  0.9718400096835391  0.4006955243649914  1.0000
  C   C39       1.0  0.3683943500518227  0.5281599901997426  0.9006955243308246  1.0000
  C   C40       1.0  0.13160565080083733  0.028159990238648663  0.5993044757224834  1.0000
  C   C41       1.0  0.6107130626454987  0.6586421964275221  0.10278232768804396  1.0000
  C   C42       1.0  0.8892869366949896  0.15864219646642808  0.39721767243359757  1.0000
  C   C43       1.0  0.38928693745107545  0.34135780349466577  0.8972176723994308  1.0000
  C   C44       1.0  0.11071306340158456  0.8413578034557597  0.6027823276538772  1.0000
  C   C45       1.0  0.635752569783262  0.4695160392080842  0.15304578188187967  1.0000
  C   C46       1.0  0.8642474295572262  0.9695160391691781  0.34695421823976197  1.0000
  C   C47       1.0  0.3642474303133122  0.5304839607141035  0.8469542182055952  1.0000
  C   C48       1.0  0.13575257053934783  0.030483960753009694  0.6530457818477129  1.0000
  C   C49       1.0  0.7448616853095823  0.4801891511694746  0.5069359749939562  1.0000
  C   C50       1.0  0.7551383155315254  0.9801891511305684  0.9930640249440478  1.0000
  C   C51       1.0  0.2551383147869919  0.5198108487527132  0.49306402509351865  1.0000
  C   C52       1.0  0.2448616845650488  0.019810848791619307  0.006935975143427149  1.0000
  C   C53       1.0  0.7357884360651186  0.5214801158086748  0.4551096345986583  1.0000
  C   C54       1.0  0.7642115632753698  0.02148011584758086  0.04489036552298332  1.0000
  C   C55       1.0  0.2642115640314556  0.478519884113513  0.5448903654888165  1.0000
  C   C56       1.0  0.23578843682120443  0.9785198840746069  0.9551096345644915  1.0000
  C   C57       1.0  0.6924534562952369  0.37602012150311365  0.5164346746207698  1.0000
  C   C58       1.0  0.8075465445458708  0.8760201214642076  0.9835653253172342  1.0000
  C   C59       1.0  0.3075465438013372  0.6239798784190741  0.48356532546670505  1.0000
  C   C60       1.0  0.19245345555070342  0.12397987845798021  0.01643467477024073  1.0000
  C   C61       1.0  0.8034063558950731  0.5406819124442794  0.549191140908208  1.0000
  C   C62       1.0  0.6965936435535416  0.040681912483185596  0.9508088594162126  1.0000
  C   C63       1.0  0.19659364420150102  0.4593180874779083  0.4508088591792669  1.0000
  C   C64       1.0  0.3034063551346625  0.9593180874390022  0.04919114067250456  1.0000
  C   C65       1.0  0.6839098612131671  0.4814695285281428  0.4081458300387716  1.0000
  C   C66       1.0  0.8160901395356912  0.9814695284892367  0.09185417008162763  1.0000
  C   C67       1.0  0.3160901388834071  0.518530471394045  0.5918541700487032  1.0000
  C   C68       1.0  0.18390986056088296  0.018530471432951133  0.9081458300058471  1.0000
  C   C69       1.0  0.752369957410385  0.3922241477222613  0.6035271084704295  1.0000
  C   C70       1.0  0.7476300420223526  0.8922241476833552  0.8964728914688167  1.0000
  C   C71       1.0  0.24763004267031208  0.6077758521999265  0.39647289123187096  1.0000
  C   C72       1.0  0.2523699580742214  0.1077758522388326  0.10352710861865808  1.0000
  C   C73       1.0  0.7661778205902194  0.6401836394639984  0.3954599416336675  1.0000
  C   C74       1.0  0.7338221801427617  0.14018363950290455  0.10454005810155742  1.0000
  C   C75       1.0  0.2338221794904776  0.3598163604581893  0.6045400580686331  1.0000
  C   C76       1.0  0.2661778199379353  0.8598163604192833  0.895459941600743  1.0000
  C   C77       1.0  0.8071775681600483  0.4958968102388635  0.5980018866094701  1.0000
  C   C78       1.0  0.6928224326969366  0.9958968101999573  0.9019981137137081  1.0000
  C   C79       1.0  0.19282243193652587  0.5041031896833242  0.40199811347800474  1.0000
  C   C80       1.0  0.3071775673996376  0.004103189722230382  0.09800188637376665  1.0000
  N   N1        1.0  0.7043050311887739  0.5580219957310029  0.37089172286508343  1.0000
  N   N2        1.0  0.7956949681517144  0.05802199576990897  0.12910827725655813  1.0000
  N   N3        1.0  0.2956949674994303  0.44197800419118494  0.6291082772236336  1.0000
  N   N4        1.0  0.20430503194485974  0.9419780041522788  0.8708917228309168  1.0000
  N   N5        1.0  0.6959641667291824  0.33343874656051536  0.5633765329453728  1.0000
  N   N6        1.0  0.8040358341119253  0.8334387465216092  0.9366234669926311  1.0000
  N   N7        1.0  0.3040358333515147  0.6665612533616725  0.43662346675692765  1.0000
  N   N8        1.0  0.19596416598464889  0.16656125340057854  0.06337653309484378  1.0000
  O   O1        1.0  0.7889882826427788  0.6244323701538196  0.4469248698272952  1.0000
  O   O2        1.0  0.7110117166818323  0.12443237019272572  0.05307512990917201  1.0000
  O   O3        1.0  0.2110117174379182  0.37556762976836816  0.5530751298750053  1.0000
  O   O4        1.0  0.28898828339886473  0.875567629729462  0.9469248697931284  1.0000
  F   F1        1.0  0.647047407226878  0.08755942571210995  0.7203286065737232  1.0000
  F   F2        1.0  0.8529525922058597  0.5875594256732039  0.7796713933655232  1.0000
  F   F3        1.0  0.35295259285381914  0.9124405742100778  0.27967139312857736  1.0000
  F   F4        1.0  0.14704740789071438  0.41244057424898395  0.2203286067219517  1.0000
  F   F5        1.0  0.635707783721889  0.9143924499145689  0.7791428851889253  1.0000
  F   F6        1.0  0.864292215726726  0.4143924499534751  0.7208571151354952  1.0000
  F   F7        1.0  0.36429221637468523  0.08560755078754306  0.22085711489854945  1.0000
  F   F8        1.0  0.13570778436984832  0.5856075507486369  0.2791428849519796  1.0000
  F   F9        1.0  0.600833821690857  0.7038174580468064  0.6301104908949225  1.0000
  F   F10       1.0  0.8991661777418807  0.20381745808571242  0.8698895090443237  1.0000
  F   F11       1.0  0.39916617840571716  0.29618254187538146  0.3698895091925523  1.0000
  F   F12       1.0  0.1008338209463235  0.7961825418364753  0.13011049104439343  1.0000
  F   F13       1.0  0.6085271640863334  0.7217947698106155  0.734068176939669  1.0000
  F   F14       1.0  0.8914728353622814  0.22179476984952154  0.7659318233847517  1.0000
  F   F15       1.0  0.3914728360102407  0.27820523011157233  0.265931823147806  1.0000
  F   F16       1.0  0.10852716473429284  0.7782052300726662  0.23406817670272306  1.0000
  F   F17       1.0  0.6484604094888649  0.3746543666237175  0.17595406581804685  1.0000
  F   F18       1.0  0.8515395912441163  0.8746543673647355  0.324045933917178  1.0000
  F   F19       1.0  0.3515395905918322  0.6253456332984704  0.8240459338842536  1.0000
  F   F20       1.0  0.14846040883658074  0.12534563333737642  0.6759540657851225  1.0000
  F   F21       1.0  0.5992998718753165  0.750103143745366  0.07660492800603666  1.0000
  F   F22       1.0  0.9007001288735418  0.25010314378427223  0.42339507211436256  1.0000
  F   F23       1.0  0.4007001282212577  0.2498968561768217  0.9233950720814381  1.0000
  F   F24       1.0  0.09929987122303235  0.7498968561379156  0.5766049279731122  1.0000
  F   F25       1.0  0.6184109335913784  0.5721192533023002  0.02219413073289785  1.0000
  F   F26       1.0  0.8815890657491099  0.07211925334120631  0.4778058693887437  1.0000
  F   F27       1.0  0.3815890665051957  0.42788074661988756  0.977805869354577  1.0000
  F   F28       1.0  0.11841093434746433  0.9278807465809814  0.5221941306987311  1.0000
  F   F29       1.0  0.6401239591653171  0.382360709375124  0.0719965780683767  1.0000
  F   F30       1.0  0.8598760415835413  0.882360710116142  0.4280034220520225  1.0000
  F   F31       1.0  0.35987604093125714  0.6176392905470638  0.9280034220190981  1.0000
  F   F32       1.0  0.1401239585130329  0.11763929058596992  0.5719965780354523  1.0000
  I   I1        1.0  0.6448679981901847  0.13138858654148777  0.6016285572789265  1.0000
  I   I2        1.0  0.85513200125843  0.6313885865025817  0.898371443045494  1.0000
  I   I3        1.0  0.3551320019063895  0.8686114133807  0.3983714428085482  1.0000
  I   I4        1.0  0.14486799883814405  0.36861141341960607  0.10162855704198079  1.0000
  I   I5        1.0  0.6118040448548729  0.8672808634991401  0.5399257196934921  1.0000
  I   I6        1.0  0.8881959559862348  0.3672808635380462  0.9600742802445117  1.0000
  I   I7        1.0  0.38819595524170125  0.13271913720297185  0.46007428039398274  1.0000
  I   I8        1.0  0.1118040441103394  0.6327191371640658  0.03992571984296303  1.0000
  I   I9        1.0  0.6472653656858768  0.5511489933932766  0.263625609666926  1.0000
  I   I10       1.0  0.8527346350629815  0.05114899343218271  0.23637439045347325  1.0000
  I   I11       1.0  0.35273463441069747  0.4488510065289112  0.7363743904205488  1.0000
  I   I12       1.0  0.1472653650335926  0.9488510064900051  0.7636256096340016  1.0000
  I   I13       1.0  0.6166279730920006  0.8000711900135937  0.19507092089431202  1.0000
  I   I14       1.0  0.8833720276568576  0.3000711900524999  0.3049290792260872  1.0000
  I   I15       1.0  0.38337202700457357  0.19992880990859402  0.8049290791931627  1.0000
  I   I16       1.0  0.1166279724397165  0.6999288106496121  0.6950709208613877  1.0000
