data_image0
_chemical_formula_structural       H14C30N2O2F8I4
_chemical_formula_sum              "H14 C30 N2 O2 F8 I4"
_cell_length_a       7.876033919420266
_cell_length_b       5.964566412454934
_cell_length_c       16.49477129323458
_cell_angle_alpha    90.0
_cell_angle_beta     97.05169865173578
_cell_angle_gamma    90.0

_space_group_name_H-M_alt    "P 1"
_space_group_IT_number       1

loop_
  _space_group_symop_operation_xyz
  'x, y, z'

loop_
  _atom_site_type_symbol
  _atom_site_label
  _atom_site_symmetry_multiplicity
  _atom_site_fract_x
  _atom_site_fract_y
  _atom_site_fract_z
  _atom_site_occupancy
  H   H1        1.0  0.18615913399340614  0.0976770933061351  0.941552187057259  1.0000
  H   H2        1.0  0.8138408660102665  0.5976770939386258  0.05844781322808768  1.0000
  H   H3        1.0  0.22582191398148588  0.15858719219301626  0.7968070504079136  1.0000
  H   H4        1.0  0.7741780858676947  0.6585871911489393  0.20319294926656084  1.0000
  H   H5        1.0  0.003549190240472151  0.5080495698182312  0.7358998595015439  1.0000
  H   H6        1.0  0.9964508096087084  0.0080495691857405  0.26410014017293054  1.0000
  H   H7        1.0  0.259045832589115  0.20034771471480015  0.5352435373640051  1.0000
  H   H8        1.0  0.7409541672600656  0.7003477153472909  0.4647564623104694  1.0000
  H   H9        1.0  0.9647619410934989  0.4492432952720092  0.88078668575923  1.0000
  H   H10       1.0  0.03523805891017385  0.9492432959044999  0.11921331452611669  1.0000
  H   H11       1.0  0.06579131262710519  0.5709652729976592  0.5944845680180503  1.0000
  H   H12       1.0  0.9342086873765675  0.07096527236516845  0.4055154322672964  1.0000
  H   H13       1.0  0.05561733727098788  0.7437313768083587  0.9843878932299699  1.0000
  H   H14       1.0  0.9443826627326848  0.24373137785243565  0.015612107055376877  1.0000
  C   C1        1.0  0.30341286363654835  0.515877781757074  0.22781714614946058  1.0000
  C   C2        1.0  0.6965871362126322  0.01587778112458322  0.7721828535250138  1.0000
  C   C3        1.0  0.3416365557101287  0.44727424518724934  0.3087490422289515  1.0000
  C   C4        1.0  0.6583634441390518  0.9472742458197401  0.691250957445523  1.0000
  C   C5        1.0  0.34849019414895027  0.38669959063305626  0.16353272016026776  1.0000
  C   C6        1.0  0.6515098057002303  0.886699591265547  0.8364672795142067  1.0000
  C   C7        1.0  0.43568526453371736  0.184378196829795  0.17826780334859513  1.0000
  C   C8        1.0  0.5643147354699553  0.6843781974622858  0.8217321969367517  1.0000
  C   C9        1.0  0.4762746143067782  0.11565337063890259  0.25924569232108047  1.0000
  C   C10       1.0  0.5237253855424023  0.6156533695948255  0.740754307353394  1.0000
  C   C11       1.0  0.42889073119898474  0.2450326392456851  0.3232048325435115  1.0000
  C   C12       1.0  0.5711092688046879  0.7450326398781759  0.6767951677418351  1.0000
  C   C13       1.0  0.11754286623431098  0.8376647595987767  0.756368626757721  1.0000
  C   C14       1.0  0.8824571337693617  0.3376647606428537  0.24363137352762576  1.0000
  C   C15       1.0  0.14502902322386532  0.969042740127872  0.8964622341906708  1.0000
  C   C16       1.0  0.8549709766253153  0.46904273949538117  0.10353776548380357  1.0000
  C   C17       1.0  0.16822819818590476  0.0034227902898975814  0.8150752977621216  1.0000
  C   C18       1.0  0.8317718016632759  0.5034227909223883  0.18492470191235283  1.0000
  C   C19       1.0  0.04403594821059279  0.63739312082456  0.7809339414007587  1.0000
  C   C20       1.0  0.95596405179308  0.13739312186863703  0.219066058884588  1.0000
  C   C21       1.0  0.14024780571494067  0.8702996749538198  0.6712984527583948  1.0000
  C   C22       1.0  0.8597521941342399  0.37029967432132904  0.32870154691607967  1.0000
  C   C23       1.0  0.2105885578782029  0.05794490933629308  0.5664695870266111  1.0000
  C   C24       1.0  0.7894114419709777  0.557944908292216  0.43353041264786335  1.0000
  C   C25       1.0  0.021685885059866624  0.6047906789112738  0.8625325724702767  1.0000
  C   C26       1.0  0.978314114943806  0.10479067995535082  0.13746742781506996  1.0000
  C   C27       1.0  0.11393002844727719  0.7410393185949617  0.6020788226467835  1.0000
  C   C28       1.0  0.8860699715563954  0.24103931963903885  0.3979211776385632  1.0000
  C   C29       1.0  0.0720008047664095  0.77036137956402  0.9205070129235198  1.0000
  C   C30       1.0  0.9279991950827712  0.2703613789315292  0.07949298675095472  1.0000
  N   N1        1.0  0.1589947875114258  0.8635360098002626  0.5364853989113625  1.0000
  N   N2        1.0  0.8410052123377548  0.3635360108443395  0.4635146007631119  1.0000
  O   O1        1.0  0.20302265651117674  0.07505320069288143  0.6480806494283521  1.0000
  O   O2        1.0  0.796977343338004  0.5750532013253722  0.3519193502461225  1.0000
  F   F1        1.0  0.3042615252566857  0.4585196191778783  0.08588932253434539  1.0000
  F   F2        1.0  0.695738474746987  0.9585196198103692  0.9141106777510013  1.0000
  F   F3        1.0  0.21853283645515084  0.7108604476506926  0.21014632070892247  1.0000
  F   F4        1.0  0.7814671635485219  0.21086044701820186  0.7898536795764242  1.0000
  F   F5        1.0  0.5626633815966896  0.9221496114981111  0.2768896255349979  1.0000
  F   F6        1.0  0.4373366184069831  0.4221496108656204  0.7231103747503487  1.0000
  F   F7        1.0  0.4702393449234653  0.1707123032235486  0.40078562800679784  1.0000
  F   F8        1.0  0.5297606550802074  0.6707123038560394  0.5992143722785489  1.0000
  I   I1        1.0  0.2650493984889231  0.6392622172901002  0.4052272343454655  1.0000
  I   I2        1.0  0.7349506015147497  0.13926221833417737  0.5947727659398813  1.0000
  I   I3        1.0  0.4942975755315921  0.9883748796374966  0.08112362685051228  1.0000
  I   I4        1.0  0.5057024243175885  0.48837487900500587  0.9188763728239622  1.0000
