data_image0
_chemical_formula_structural       H28C38N8O2S4Cl4
_chemical_formula_sum              "H28 C38 N8 O2 S4 Cl4"
_cell_length_a       8.996220939174663
_cell_length_b       10.100756090796654
_cell_length_c       11.23413307026575
_cell_angle_alpha    93.86943108449819
_cell_angle_beta     110.83135907622302
_cell_angle_gamma    97.14671071484774

_space_group_name_H-M_alt    "P 1"
_space_group_IT_number       1

loop_
  _space_group_symop_operation_xyz
  'x, y, z'

loop_
  _atom_site_type_symbol
  _atom_site_label
  _atom_site_symmetry_multiplicity
  _atom_site_fract_x
  _atom_site_fract_y
  _atom_site_fract_z
  _atom_site_occupancy
  H   H1        1.0  0.8707717280087751  0.4809258487124837  0.6907332617219296  1.0000
  H   H2        1.0  0.12922827170719145  0.5190741514576578  0.3092667382047296  1.0000
  H   H3        1.0  0.04284932217318702  0.4503628228125621  0.6527901021027359  1.0000
  H   H4        1.0  0.9571506775427795  0.5496371773575794  0.3472098978239233  1.0000
  H   H5        1.0  0.6897073705660637  0.08542449832267586  0.27742766390933626  1.0000
  H   H6        1.0  0.3102926291499029  0.9145755018474658  0.722572336017323  1.0000
  H   H7        1.0  0.40250979939973963  0.13536380967248393  0.16213720618986427  1.0000
  H   H8        1.0  0.597490200316227  0.8646361904976577  0.8378627937367951  1.0000
  H   H9        1.0  0.11689636915289678  0.028282459176937915  0.08209985695391957  1.0000
  H   H10       1.0  0.8831036305630697  0.9717175409932037  0.9179001429727397  1.0000
  H   H11       1.0  0.1375266580448219  0.026789747038146034  0.4711702670294738  1.0000
  H   H12       1.0  0.8624733427798926  0.9732102531209279  0.5288297328944489  1.0000
  H   H13       1.0  0.4249007709808383  0.13244003078243458  0.5516822724253768  1.0000
  H   H14       1.0  0.5750992287351282  0.8675599693877072  0.4483177275012824  1.0000
  H   H15       1.0  0.5569200583662147  0.3922088018874302  0.5796453478206357  1.0000
  H   H16       1.0  0.4430799413497519  0.6077911982827114  0.4203546521060236  1.0000
  H   H17       1.0  0.7320850628431416  0.6764271005488928  0.058301665855466075  1.0000
  H   H18       1.0  0.26791493798157295  0.32357289961018104  0.9416983340684566  1.0000
  H   H19       1.0  0.0009331973704500558  0.671237490168613  0.1528880937887426  1.0000
  H   H20       1.0  0.9990668023455166  0.3287625100015287  0.8471119061379168  1.0000
  H   H21       1.0  0.29005305282021143  0.7625062264088642  0.2511935804609202  1.0000
  H   H22       1.0  0.709946948004503  0.2374937737502095  0.7488064194630024  1.0000
  H   H23       1.0  0.313666415132644  0.7688434354293517  0.8749829514039122  1.0000
  H   H24       1.0  0.6863335845833227  0.23115656474078985  0.12501704852274714  1.0000
  H   H25       1.0  0.02082031740726204  0.6849668395642807  0.7761302802934767  1.0000
  H   H26       1.0  0.9791796821612859  0.31503315960923467  0.223869719641543  1.0000
  H   H27       1.0  0.27631340547311173  0.34917952394698887  0.4976131697514899  1.0000
  H   H28       1.0  0.7236865940954362  0.6508204752265264  0.5023868301835298  1.0000
  C   C1        1.0  0.8282768733569518  0.33372615573265246  0.5433076573695248  1.0000
  C   C2        1.0  0.17172312635901485  0.6662738444374892  0.4566923425571345  1.0000
  C   C3        1.0  0.6050721374656994  0.20067898887065316  0.4084622258717576  1.0000
  C   C4        1.0  0.39492786321159645  0.7993210102917943  0.5915377740605255  1.0000
  C   C5        1.0  0.7115792107524809  0.16316844805936478  0.3556504599365071  1.0000
  C   C6        1.0  0.2884207889634857  0.8368315521107769  0.6443495399901521  1.0000
  C   C7        1.0  0.43403800127822306  0.14196345050619524  0.36236647197793076  1.0000
  C   C8        1.0  0.5659619982903249  0.85803654866732  0.6376335279570889  1.0000
  C   C9        1.0  0.34528225256163725  0.11084451334304189  0.23024905844182697  1.0000
  C   C10       1.0  0.6547177471543294  0.8891554868270998  0.7697509414848324  1.0000
  C   C11       1.0  0.18441039037039578  0.05143012512892497  0.18466764501733537  1.0000
  C   C12       1.0  0.8155896097929998  0.9485698751709655  0.8153323558686733  1.0000
  C   C13       1.0  0.11113392879913843  0.021908037527146953  0.2723113993953874  1.0000
  C   C14       1.0  0.8888660709168282  0.9780919626429948  0.7276886005312719  1.0000
  C   C15       1.0  0.19596561153038414  0.05194874555710659  0.404133675726713  1.0000
  C   C16       1.0  0.8040343892943305  0.9480512546019673  0.5958663241972096  1.0000
  C   C17       1.0  0.3570247862309634  0.11197012986919405  0.4486316112793083  1.0000
  C   C18       1.0  0.6429752134850033  0.8880298703009476  0.551368388647351  1.0000
  C   C19       1.0  0.5905227278066852  0.5165381832778806  0.7460977423878267  1.0000
  C   C20       1.0  0.4094772730180293  0.48346181688119316  0.253902257536096  1.0000
  C   C21       1.0  0.8158753001805826  0.6196869232576807  0.9011216058200555  1.0000
  C   C22       1.0  0.18412470064413183  0.38031307690139304  0.09887839410386719  1.0000
  C   C23       1.0  0.7089649918924801  0.6286254671781061  0.9627248231180164  1.0000
  C   C24       1.0  0.29103500767606794  0.37137453199540926  0.03727517681700328  1.0000
  C   C25       1.0  0.9887757006068041  0.6715717416812116  0.9571585735207708  1.0000
  C   C26       1.0  0.011224299109162407  0.32842825848893  0.0428414264058884  1.0000
  C   C27       1.0  0.06746942932745957  0.6947675908980318  0.09095541481697206  1.0000
  C   C28       1.0  0.9325305714972548  0.305232409261042  0.9090445851069506  1.0000
  C   C29       1.0  0.23101431859302043  0.744874714756391  0.14724504367098626  1.0000
  C   C30       1.0  0.7689856809755277  0.25512528441712423  0.8527549562640335  1.0000
  C   C31       1.0  0.31832823578045066  0.7707874323860705  0.06851145843491  1.0000
  C   C32       1.0  0.6816717650442639  0.22921256777300325  0.9314885414890127  1.0000
  C   C33       1.0  0.24402935249355046  0.7484215493601154  0.9352730269348902  1.0000
  C   C34       1.0  0.755970648331164  0.25157845079895846  0.06472697298903247  1.0000
  C   C35       1.0  0.0795569126237392  0.6995778638979907  0.8802353814816395  1.0000
  C   C36       1.0  0.9204430882009752  0.3004221362610831  0.11976461844228316  1.0000
  C   C37       1.0  0.3332277245644428  0.409201272678902  0.5927516134454366  1.0000
  C   C38       1.0  0.6667722751515238  0.5907987274912396  0.40724838648122264  1.0000
  N   N1        1.0  0.9229172488161081  0.42958319949151264  0.6372771881298724  1.0000
  N   N2        1.0  0.07708275089985854  0.5704168006786291  0.36272281179678684  1.0000
  N   N3        1.0  0.6712067834289217  0.2970343645378847  0.5150059148971663  1.0000
  N   N4        1.0  0.32879321628704494  0.702965635632257  0.4849940850294929  1.0000
  N   N5        1.0  0.49570554123209926  0.44043112980920274  0.631033990121615  1.0000
  N   N6        1.0  0.5042944584838673  0.5595688703609388  0.36896600980504424  1.0000
  N   N7        1.0  0.7461702702448592  0.5559697774103676  0.7767139309561061  1.0000
  N   N8        1.0  0.25382972932368875  0.4440302217631477  0.22328606897891362  1.0000
  O   O1        1.0  0.25565400205008254  0.4449459148117315  0.6578678229897401  1.0000
  O   O2        1.0  0.7443459975184654  0.5550540843617837  0.3421321769452796  1.0000
  S   S1        1.0  0.9036602152223744  0.2478921313544426  0.4416655128156614  1.0000
  S   S2        1.0  0.09633978449359236  0.752107868815699  0.5583344871109979  1.0000
  S   S3        1.0  0.5169388420178782  0.5580772116405526  0.8648157044762158  1.0000
  S   S4        1.0  0.4830611576980884  0.4419227885295891  0.13518429545044347  1.0000
  Cl  Cl1       1.0  0.9113866117233999  0.9446804501824829  0.21593722317120562  1.0000
  Cl  Cl2       1.0  0.08861338910131475  0.05531954997659084  0.7840627767527173  1.0000
  Cl  Cl3       1.0  0.5234121586810565  0.8321936863510587  0.13886854433761664  1.0000
  Cl  Cl4       1.0  0.4765878410349101  0.1678063138190829  0.8611314555890425  1.0000
