data_image0
_chemical_formula_structural       H24C60N8O12F12I12
_chemical_formula_sum              "H24 C60 N8 O12 F12 I12"
_cell_length_a       4.848162942233686
_cell_length_b       17.566854330359938
_cell_length_c       21.390505580659674
_cell_angle_alpha    90.0
_cell_angle_beta     94.92077527482344
_cell_angle_gamma    90.0

_space_group_name_H-M_alt    "P 1"
_space_group_IT_number       1

loop_
  _space_group_symop_operation_xyz
  'x, y, z'

loop_
  _atom_site_type_symbol
  _atom_site_label
  _atom_site_symmetry_multiplicity
  _atom_site_fract_x
  _atom_site_fract_y
  _atom_site_fract_z
  _atom_site_occupancy
  H   H1        1.0  0.8145344643169733  0.4208346702814906  0.29425038865694403  1.0000
  H   H2        1.0  0.814534465896213  0.5791653296980198  0.7942503884268883  1.0000
  H   H3        1.0  0.31453446421482606  0.9208346699866189  0.29425038862274444  1.0000
  H   H4        1.0  0.31453446579406585  0.07916532999289153  0.7942503883926887  1.0000
  H   H5        1.0  0.47152899054846215  0.2706590446180685  0.36322369267434895  1.0000
  H   H6        1.0  0.4715289921277019  0.729340955361442  0.8632236924442932  1.0000
  H   H7        1.0  0.9715289906506095  0.7706590443231968  0.36322369270854854  1.0000
  H   H8        1.0  0.9715289901690998  0.22934095565631366  0.8632236924832054  1.0000
  H   H9        1.0  0.45750091986216485  0.5182908822932926  0.2613976613657119  1.0000
  H   H10       1.0  0.4575009216396945  0.4817091176862178  0.7613976616048591  1.0000
  H   H11       1.0  0.9575009199643122  0.018290882588164345  0.2613976613999115  1.0000
  H   H12       1.0  0.9575009217418418  0.9817091173913461  0.7613976616390586  1.0000
  H   H13       1.0  0.05463045764178365  0.553604733500442  0.46091641982961445  1.0000
  H   H14       1.0  0.05463045735856394  0.4463952664790683  0.9609164200734743  1.0000
  H   H15       1.0  0.5546304577439309  0.05360473322605992  0.46091641986381415  1.0000
  H   H16       1.0  0.5546304574607112  0.9463952667534504  0.9609164201076738  1.0000
  H   H17       1.0  0.6988133389463024  0.6502651781120533  0.4267369473169975  1.0000
  H   H18       1.0  0.6988133405255422  0.3497348218674571  0.9267369470869418  1.0000
  H   H19       1.0  0.1988133388441552  0.15026517840692505  0.4267369472827979  1.0000
  H   H20       1.0  0.19881334042339502  0.8497348215725854  0.9267369470527422  1.0000
  H   H21       1.0  0.3892972643352676  0.44784204798713123  0.4924293587978468  1.0000
  H   H22       1.0  0.38929726385375796  0.552157951992379  0.9924293585725036  1.0000
  H   H23       1.0  0.8892972642391249  0.9478420482615135  0.49242935836284346  1.0000
  H   H24       1.0  0.8892972639559052  0.05215795171799699  0.9924293586067031  1.0000
  C   C1        1.0  0.5368205821284431  0.19647594014797531  0.6599319752396177  1.0000
  C   C2        1.0  0.5368205805492033  0.8035240598315351  0.1599319754696734  1.0000
  C   C3        1.0  0.036820582026296  0.6964759398531036  0.6599319752054181  1.0000
  C   C4        1.0  0.03682058044705618  0.30352406012640687  0.15993197543547377  1.0000
  C   C5        1.0  0.16570728145662453  0.11693468456955723  0.5772213418513952  1.0000
  C   C6        1.0  0.16570728193813414  0.8830653154099531  0.07722134207673836  1.0000
  C   C7        1.0  0.6657072815587717  0.6169346848439394  0.5772213418855947  1.0000
  C   C8        1.0  0.6657072820402814  0.383065315135571  0.07722134211093797  1.0000
  C   C9        1.0  0.3476987406998111  0.23420029862089156  0.6179030033983344  1.0000
  C   C10       1.0  0.34769874118132077  0.7657997013586189  0.11790300362367759  1.0000
  C   C11       1.0  0.8476987408019584  0.7342002988952737  0.617903003432534  1.0000
  C   C12       1.0  0.847698741283468  0.2657997010842367  0.11790300365787722  1.0000
  C   C13       1.0  0.3528891349900153  0.0755892850836199  0.6173435327499861  1.0000
  C   C14       1.0  0.35288913547152495  0.9244107148958906  0.11734353297532933  1.0000
  C   C15       1.0  0.8528891350921625  0.575589285358002  0.6173435327841857  1.0000
  C   C16       1.0  0.8528891353753822  0.42441071462150837  0.11734353254032603  1.0000
  C   C17       1.0  0.5363743604414033  0.11713830099016011  0.6582057587759116  1.0000
  C   C18       1.0  0.5363743609229129  0.8828616995586042  0.1582057590012548  1.0000
  C   C19       1.0  0.036374360339256076  0.6171383006952884  0.6582057587417119  1.0000
  C   C20       1.0  0.03637436082076574  0.38286169928422203  0.15820575896705522  1.0000
  C   C21       1.0  0.15950372719963388  0.1962297902159111  0.5759044038904857  1.0000
  C   C22       1.0  0.15950372768114351  0.8037702097635993  0.07590440411582895  1.0000
  C   C23       1.0  0.659503727301781  0.6962297899210393  0.5759044039246853  1.0000
  C   C24       1.0  0.6595037275850009  0.30377021005847105  0.07590440368082564  1.0000
  C   C25       1.0  0.78878442236484  0.4707122848801225  0.32347272140283795  1.0000
  C   C26       1.0  0.7887844220816203  0.5292877150993879  0.8234727216466977  1.0000
  C   C27       1.0  0.2887844222626928  0.9707122851545045  0.32347272136863836  1.0000
  C   C28       1.0  0.28878442197947307  0.029287714825005792  0.8234727216124981  1.0000
  C   C29       1.0  0.40452976747524255  0.3208212918496105  0.3872605540527711  1.0000
  C   C30       1.0  0.40452976719202277  0.6791787081298999  0.8872605542966306  1.0000
  C   C31       1.0  0.9045297675773898  0.8208212915547387  0.3872605540869707  1.0000
  C   C32       1.0  0.9045297672941699  0.1791787084247716  0.8872605543308303  1.0000
  C   C33       1.0  0.5610097982455958  0.588421912973659  0.3426325558139216  1.0000
  C   C34       1.0  0.5610097977640862  0.4115780870058514  0.8426325555885784  1.0000
  C   C35       1.0  0.061009798143448604  0.08842191326853073  0.342632555779722  1.0000
  C   C36       1.0  0.06100979766193896  0.9115780867109796  0.8426325555543788  1.0000
  C   C37       1.0  0.164634820871496  0.42382998970581476  0.39930273272522226  1.0000
  C   C38       1.0  0.16463482058827628  0.5761700102736956  0.899302732969082  1.0000
  C   C39       1.0  0.6646348209736432  0.923829989410943  0.3993027327594219  1.0000
  C   C40       1.0  0.6646348206904235  0.07617001056856738  0.8993027330032817  1.0000
  C   C41       1.0  0.9579694484448326  0.48005635109215417  0.38006134203357145  1.0000
  C   C42       1.0  0.957969447963323  0.5199436488873562  0.8800613418082281  1.0000
  C   C43       1.0  0.45796944834268544  0.9800563513665363  0.38006134199937197  1.0000
  C   C44       1.0  0.4579694480594657  0.01994364861297404  0.8800613422432316  1.0000
  C   C45       1.0  0.5896620086391539  0.5245278367268844  0.30479438769451156  1.0000
  C   C46       1.0  0.5896620081576442  0.475472163252626  0.8047943874691683  1.0000
  C   C47       1.0  0.08966200853700662  0.02452783645250228  0.30479438766031197  1.0000
  C   C48       1.0  0.08966200825378685  0.9754721635270082  0.8047943879041717  1.0000
  C   C49       1.0  0.9246902024429035  0.5453259433844077  0.41729067867964237  1.0000
  C   C50       1.0  0.9246902019613938  0.45467405659510274  0.9172906784542992  1.0000
  C   C51       1.0  0.4246902023407561  0.04532594311002552  0.41729067864544267  1.0000
  C   C52       1.0  0.42469020205753627  0.9546740568694849  0.9172906788893023  1.0000
  C   C53       1.0  0.7277407048347809  0.599753524556273  0.39855135260650415  1.0000
  C   C54       1.0  0.7277407043532712  0.4002464754232374  0.8985513523811608  1.0000
  C   C55       1.0  0.22774070473263375  0.09975352428189088  0.39855135257230456  1.0000
  C   C56       1.0  0.22774070425112408  0.9002464756976195  0.8985513523469613  1.0000
  C   C57       1.0  0.3533212882697803  0.41354839935370197  0.4503857707271447  1.0000
  C   C58       1.0  0.35332129004730994  0.5864516006258085  0.950385770966292  1.0000
  C   C59       1.0  0.8533212883719274  0.9135483996280842  0.4503857707613443  1.0000
  C   C60       1.0  0.8533212899511673  0.08645160035142631  0.9503857705312886  1.0000
  N   N1        1.0  0.5037255795327756  0.3480671339906715  0.441469654597796  1.0000
  N   N2        1.0  0.5037255792495557  0.6519328659888389  0.9414696548416557  1.0000
  N   N3        1.0  0.003725579430628343  0.8480671342650536  0.44146965456359644  1.0000
  N   N4        1.0  0.00372557914740857  0.15193286628371067  0.9414696548074561  1.0000
  N   N5        1.0  0.35092798463163843  0.6441921841659702  0.3235074161193889  1.0000
  N   N6        1.0  0.35092798415012877  0.3558078158135402  0.8235074158940456  1.0000
  N   N7        1.0  0.8509279847337856  0.14419218446084195  0.32350741615358847  1.0000
  N   N8        1.0  0.8509279842522759  0.8558078155186685  0.8235074159282452  1.0000
  O   O1        1.0  0.18102054790705033  0.6282572583826889  0.27812633917201285  1.0000
  O   O2        1.0  0.18102054742554072  0.3717427415968216  0.7781263389466697  1.0000
  O   O3        1.0  0.6810205480091975  0.1282572586775606  0.27812633920621244  1.0000
  O   O4        1.0  0.6810205475276878  0.8717427413019498  0.7781263389808691  1.0000
  O   O5        1.0  0.19819344593218938  0.3634612628947084  0.35881368259372143  1.0000
  O   O6        1.0  0.19819344770971906  0.636538737084802  0.8588136828328686  1.0000
  O   O7        1.0  0.6981934460343365  0.8634612631690906  0.358813682627921  1.0000
  O   O8        1.0  0.6981934457511169  0.13653873737967373  0.8588136828717806  1.0000
  O   O9        1.0  0.3480985187159871  0.705240716807729  0.3530680299310156  1.0000
  O   O10       1.0  0.3480985182344775  0.29475928317178146  0.8530680297056723  1.0000
  O   O11       1.0  0.8480985188181343  0.2052407165333468  0.3530680299652152  1.0000
  O   O12       1.0  0.8480985183366246  0.7947592834461636  0.8530680297398718  1.0000
  F   F1        1.0  0.3472580746621697  0.31129399192142976  0.6178397691508907  1.0000
  F   F2        1.0  0.34725807514367935  0.6887060086273344  0.11783976937623389  1.0000
  F   F3        1.0  0.8472580747643169  0.811293991626558  0.6178397691850903  1.0000
  F   F4        1.0  0.8472580752458265  0.18870600835295237  0.1178397694104335  1.0000
  F   F5        1.0  0.7226959669450707  0.07888035466914514  0.6974487541718847  1.0000
  F   F6        1.0  0.7226959674265803  0.9211196453103653  0.19744875439722795  1.0000
  F   F7        1.0  0.22269596684292342  0.5788803543742733  0.6974487541376851  1.0000
  F   F8        1.0  0.2226959673244331  0.42111964560523696  0.1974487543630283  1.0000
  F   F9        1.0  0.9806837559999437  0.07802775751553208  0.5377309309150133  1.0000
  F   F10       1.0  0.9806837564814531  0.9219722424639784  0.03773093114035661  1.0000
  F   F11       1.0  0.48068375589779644  0.5780277572206604  0.5377309308808138  1.0000
  F   F12       1.0  0.4806837563793061  0.42197224275885004  0.037730931106157  1.0000
  I   I1        1.0  0.8790931967246353  0.2594981693519056  0.5153286261247996  1.0000
  I   I2        1.0  0.8790931949471057  0.7405018306276048  0.015328625885652229  1.0000
  I   I3        1.0  0.379093196622488  0.7594981690570338  0.5153286260905998  1.0000
  I   I4        1.0  0.37909319484495835  0.2405018309224765  0.015328625851452617  1.0000
  I   I5        1.0  0.8139428335242851  0.25977004500534834  0.7194500013177143  1.0000
  I   I6        1.0  0.8139428338075048  0.740229954974162  0.21945000107385454  1.0000
  I   I7        1.0  0.3139428334221378  0.7597700452797306  0.7194500012835146  1.0000
  I   I8        1.0  0.3139428339036475  0.24022995469977987  0.21945000150885785  1.0000
  I   I9        1.0  0.36236936868208386  0.9568117827988847  0.6159307156390353  1.0000
  I   I10       1.0  0.3623693689653036  0.043188217180625696  0.11593071539517563  1.0000
  I   I11       1.0  0.8623693687842311  0.45681178252450255  0.6159307156732349  1.0000
  I   I12       1.0  0.8623693690674508  0.5431882174550078  0.11593071542937526  1.0000
