data_image0
_chemical_formula_structural       H14C30N2O2F6I6
_chemical_formula_sum              "H14 C30 N2 O2 F6 I6"
_cell_length_a       9.121354003568966
_cell_length_b       9.572205601266308
_cell_length_c       10.513834199028988
_cell_angle_alpha    84.90768731389895
_cell_angle_beta     85.46330810064293
_cell_angle_gamma    63.69298648715703

_space_group_name_H-M_alt    "P 1"
_space_group_IT_number       1

loop_
  _space_group_symop_operation_xyz
  'x, y, z'

loop_
  _atom_site_type_symbol
  _atom_site_label
  _atom_site_symmetry_multiplicity
  _atom_site_fract_x
  _atom_site_fract_y
  _atom_site_fract_z
  _atom_site_occupancy
  H   H1        1.0  0.12126914293069233  0.4566610643392172  0.7274038875055843  1.0000
  H   H2        1.0  0.8787308567879036  0.5433389352972481  0.27259611317837223  1.0000
  H   H3        1.0  0.09181935596484539  0.21266958414495846  0.1527428839500252  1.0000
  H   H4        1.0  0.9081806437537505  0.7873304154915067  0.8472571167339311  1.0000
  H   H5        1.0  0.9208148260760285  0.3460699688004103  0.7689408148227354  1.0000
  H   H6        1.0  0.07918517368993104  0.6539300309123904  0.23105918490539687  1.0000
  H   H7        1.0  0.4472337087886468  0.3886840347726475  0.013689004785690743  1.0000
  H   H8        1.0  0.5527662920789669  0.6113159649293177  0.9863109949386629  1.0000
  H   H9        1.0  0.8909912222685694  0.10687896614365151  0.20322556991537585  1.0000
  H   H10       1.0  0.10900877749739052  0.8931210335691492  0.7967744298127564  1.0000
  H   H11       1.0  0.7184593427759883  0.2424810874886282  0.8211839577307103  1.0000
  H   H12       1.0  0.28154065809162543  0.7575189122133369  0.17881604199364354  1.0000
  H   H13       1.0  0.7032160862501641  0.12028849471378214  0.039307986764237635  1.0000
  H   H14       1.0  0.2967839140856663  0.8797115061531326  0.9606920129651418  1.0000
  C   C1        1.0  0.5677669919638694  0.8781676750711718  0.35810418832394303  1.0000
  C   C2        1.0  0.432233007270307  0.12183232580657868  0.6418958114092149  1.0000
  C   C3        1.0  0.572437598980919  0.7095992085630335  0.5489849246109438  1.0000
  C   C4        1.0  0.4275624002058934  0.29040079223838144  0.45101507607803837  1.0000
  C   C5        1.0  0.7268603971087987  0.6965437844353194  0.5714484787536827  1.0000
  C   C6        1.0  0.27313960265716103  0.3034562152774813  0.4285515209744496  1.0000
  C   C7        1.0  0.8043512270448733  0.7717587428210084  0.49292589086545935  1.0000
  C   C8        1.0  0.19564877329095715  0.22824125804590628  0.5070741088639201  1.0000
  C   C9        1.0  0.7209781450608566  0.8631376154022983  0.3872770532435074  1.0000
  C   C10       1.0  0.2790218547051029  0.13686238431050257  0.6127229464846248  1.0000
  C   C11       1.0  0.4962310165659332  0.8012855162414341  0.4409985055702163  1.0000
  C   C12       1.0  0.503768982668243  0.1987144846363164  0.5590014941629416  1.0000
  C   C13       1.0  0.14380563510457656  0.34366801862674323  0.9234086487556301  1.0000
  C   C14       1.0  0.8561943657630372  0.6563319810752217  0.07659135096872366  1.0000
  C   C15       1.0  0.18097754015840853  0.4185255561125034  0.8175195276712394  1.0000
  C   C16       1.0  0.8190224596075512  0.5814744436002973  0.18248047205689288  1.0000
  C   C17       1.0  0.023166158819217356  0.2847739207645932  0.9564784453430573  1.0000
  C   C18       1.0  0.9768338409467422  0.7152260789482076  0.043521554385074934  1.0000
  C   C19       1.0  0.011802577090529422  0.2178561303159503  0.07921069649390003  1.0000
  C   C20       1.0  0.9881974226754303  0.7821438693968504  0.9207893032342321  1.0000
  C   C21       1.0  0.9147768609298884  0.294107891638476  0.8643904489598578  1.0000
  C   C22       1.0  0.08522313940594167  0.7058921092284389  0.13560955076952164  1.0000
  C   C23       1.0  0.35119077569337115  0.3904409913432021  0.9581357629671796  1.0000
  C   C24       1.0  0.6488092240725886  0.6095590083695988  0.04186423676095252  1.0000
  C   C25       1.0  0.8971664583197272  0.15955110549269674  0.10820666520329528  1.0000
  C   C26       1.0  0.10283354091444911  0.8404488953850537  0.8917933345298626  1.0000
  C   C27       1.0  0.8000135648058689  0.23609424925463998  0.8941508503200682  1.0000
  C   C28       1.0  0.1999864360617448  0.763905750447325  0.10584914940428548  1.0000
  C   C29       1.0  0.7912407292399292  0.16804449529726984  0.016030287323489285  1.0000
  C   C30       1.0  0.2087592705260304  0.8319555044155309  0.9839697124046429  1.0000
  N   N1        1.0  0.31300419421359554  0.4464402310317475  0.8413848090874542  1.0000
  N   N2        1.0  0.6869958055523641  0.5535597686810532  0.15861519064067803  1.0000
  O   O1        1.0  0.25442529194944224  0.32579457572406073  0.014499720175970529  1.0000
  O   O2        1.0  0.7455747083863881  0.6742054251428541  0.9855002795534089  1.0000
  F   F1        1.0  0.8046086187533635  0.6086833435252484  0.675451580848458  1.0000
  F   F2        1.0  0.19539138158246672  0.39131665734166643  0.3245484188809214  1.0000
  F   F3        1.0  0.7914266943954074  0.9385915452315727  0.3096205592893379  1.0000
  F   F4        1.0  0.20857330537055221  0.06140845448122802  0.6903794404387943  1.0000
  F   F5        1.0  0.34580039420412123  0.8179235692019644  0.41561948446576424  1.0000
  F   F6        1.0  0.6541996066161284  0.1820764304236653  0.5843805162144139  1.0000
  I   I1        1.0  0.4587292299784297  0.5986731810798032  0.6753684135132493  1.0000
  I   I2        1.0  0.5412707697401661  0.401326818556662  0.32463158717070717  1.0000
  I   I3        1.0  0.45241906065878584  0.008405633357885137  0.1948750235521388  1.0000
  I   I4        1.0  0.5475809402088277  0.9915943663440799  0.805124976172215  1.0000
  I   I5        1.0  0.03665497632590501  0.7460296474233945  0.5320227935381756  1.0000
  I   I6        1.0  0.9633450245417088  0.25397035227857045  0.4679772061861782  1.0000
