data_image0
_chemical_formula_structural       H20C52N4O4F16I8
_chemical_formula_sum              "H20 C52 N4 O4 F16 I8"
_cell_length_a       14.084870705224645
_cell_length_b       5.495068419705182
_cell_length_c       18.386167223301594
_cell_angle_alpha    90.0
_cell_angle_beta     95.00772709863966
_cell_angle_gamma    90.0

_space_group_name_H-M_alt    "P 1"
_space_group_IT_number       1

loop_
  _space_group_symop_operation_xyz
  'x, y, z'

loop_
  _atom_site_type_symbol
  _atom_site_label
  _atom_site_symmetry_multiplicity
  _atom_site_fract_x
  _atom_site_fract_y
  _atom_site_fract_z
  _atom_site_occupancy
  H   H1        1.0  0.17863815306094175  0.541169689413903  0.32143893527110096  1.0000
  H   H2        1.0  0.3213618474559362  0.04116968938707729  0.1785610648096537  1.0000
  H   H3        1.0  0.8213618472631415  0.4588303106397485  0.678561064893049  1.0000
  H   H4        1.0  0.6786381528681472  0.9588303106665742  0.8214389353544963  1.0000
  H   H5        1.0  0.36479545278102926  0.9977900494083688  0.4638790492795826  1.0000
  H   H6        1.0  0.1352045470261762  0.4977900493815431  0.036120950803812654  1.0000
  H   H7        1.0  0.6352045467677369  0.0022099506452826906  0.5361209503412431  1.0000
  H   H8        1.0  0.8647954532979072  0.5022099506721084  0.9638790493603373  1.0000
  H   H9        1.0  0.20387666488932088  0.8994870149888299  0.40167592486414205  1.0000
  H   H10       1.0  0.2961233349178846  0.39948701496200406  0.09832407521925322  1.0000
  H   H11       1.0  0.7961233347250901  0.10051298506482165  0.5983240753026485  1.0000
  H   H12       1.0  0.7038766654061989  0.6005129850916474  0.9016759249448967  1.0000
  H   H13       1.0  0.31382669611845754  0.26507129825294296  0.29770489760224883  1.0000
  H   H14       1.0  0.1861733036887479  0.7650712982797686  0.20229510248114646  1.0000
  H   H15       1.0  0.6861733042056258  0.7349287018007086  0.7022951025619011  1.0000
  H   H16       1.0  0.8138266959256631  0.23492870177388278  0.7977048976856441  1.0000
  H   H17       1.0  0.6379242049668441  0.4730165562050371  0.41948649025214874  1.0000
  H   H18       1.0  0.8620757955816665  0.9730165562318628  0.08051350927329015  1.0000
  H   H19       1.0  0.36207579529159417  0.5269834438486145  0.5805135093660364  1.0000
  H   H20       1.0  0.13792420467677197  0.026983443821788706  0.919486490344895  1.0000
  C   C1        1.0  0.5824535612475742  0.7542565066409799  0.18820858704008478  1.0000
  C   C2        1.0  0.9175464393665814  0.2542565066141541  0.3117914130313189  1.0000
  C   C3        1.0  0.4175464390765092  0.24574349341267163  0.8117914131240651  1.0000
  C   C4        1.0  0.08245356095750196  0.7457434934394974  0.6882085871328311  1.0000
  C   C5        1.0  0.6963746009436935  0.5817368785685669  0.11093865676680112  1.0000
  C   C6        1.0  0.8036253989607895  0.08173687854174118  0.3890613433072432  1.0000
  C   C7        1.0  0.30362539938038985  0.41826312148508454  0.8890613433973489  1.0000
  C   C8        1.0  0.19637460065362125  0.9182631215119103  0.6109386568595474  1.0000
  C   C9        1.0  0.6297433550109738  0.4134783257388269  0.08122425019439362  1.0000
  C   C10       1.0  0.8702566448935094  0.9134783257656528  0.4187757498796506  1.0000
  C   C11       1.0  0.3702566446034372  0.5865216743148246  0.918775749972397  1.0000
  C   C12       1.0  0.12974335543057394  0.0865216742879988  0.5812242502844992  1.0000
  C   C13       1.0  0.6731767335224584  0.7489849508044552  0.1633792989518935  1.0000
  C   C14       1.0  0.8268232663820246  0.24898495077762936  0.3366207011221507  1.0000
  C   C15       1.0  0.3268232668016249  0.25101504924919643  0.8366207012122564  1.0000
  C   C16       1.0  0.17317673316674131  0.7510150492760223  0.663379298498675  1.0000
  C   C17       1.0  0.51615811664482  0.5854221648021979  0.15856666539036915  1.0000
  C   C18       1.0  0.9838418831940181  0.08542216477537218  0.3414333341377103  1.0000
  C   C19       1.0  0.4838418836136184  0.4145778352514536  0.8414333342278161  1.0000
  C   C20       1.0  0.01615811635474777  0.9145778352782793  0.6585666654831154  1.0000
  C   C21       1.0  0.5389054908611908  0.41807635401985704  0.10593225000192229  1.0000
  C   C22       1.0  0.9610945090432924  0.9180763540466829  0.3940677500721219  1.0000
  C   C23       1.0  0.4610945087532201  0.5819236460337944  0.8940677501648682  1.0000
  C   C24       1.0  0.038905491280790926  0.08192364600696866  0.605932250092028  1.0000
  C   C25       1.0  0.42637359209992487  0.6823978472321157  0.414069521747556  1.0000
  C   C26       1.0  0.07362640841695307  0.18239784720528998  0.08593047833319867  1.0000
  C   C27       1.0  0.5736264082241586  0.31760215282153575  0.5859304784165938  1.0000
  C   C28       1.0  0.9263735918414854  0.8176021528483616  0.9140695212849865  1.0000
  C   C29       1.0  0.41415846701749265  0.4783832191376129  0.3680297136676209  1.0000
  C   C30       1.0  0.0858415327897128  0.9783832191644386  0.1319702864157744  1.0000
  C   C31       1.0  0.5858415325969183  0.5216167809160386  0.6319702864991696  1.0000
  C   C32       1.0  0.9141584674687256  0.021616780889212848  0.8680297132024107  1.0000
  C   C33       1.0  0.24986908358330648  0.5776295812109826  0.34731293046459133  1.0000
  C   C34       1.0  0.250130916223899  0.07762958118415687  0.15268706961880388  1.0000
  C   C35       1.0  0.7501309160311045  0.4223704188426689  0.6526870697021991  1.0000
  C   C36       1.0  0.7498690841001845  0.9223704188694946  0.847312930545346  1.0000
  C   C37       1.0  0.3534976172998671  0.8398486310835787  0.42841299758317514  1.0000
  C   C38       1.0  0.14650238250733838  0.33984863105675284  0.07158700250022013  1.0000
  C   C39       1.0  0.6465023823145438  0.16015136897007293  0.5715870025836154  1.0000
  C   C40       1.0  0.853497617816745  0.6601513689968986  0.9284129976639298  1.0000
  C   C41       1.0  0.2640765843366804  0.7817164085884967  0.39347501541231616  1.0000
  C   C42       1.0  0.23592341540488007  0.2817164085616709  0.10652498412511432  1.0000
  C   C43       1.0  0.7359234159217579  0.21828359146515489  0.606524984205869  1.0000
  C   C44       1.0  0.7640765841438859  0.7182835914919806  0.8934750154957114  1.0000
  C   C45       1.0  0.32460707578502845  0.4220854924540573  0.3336280372159598  1.0000
  C   C46       1.0  0.175392924022177  0.9220854924808831  0.1663719628674355  1.0000
  C   C47       1.0  0.6753929238293823  0.5779145075995942  0.6663719629508307  1.0000
  C   C48       1.0  0.8246070763019063  0.07791450757276842  0.8336280372967144  1.0000
  C   C49       1.0  0.561868107705171  0.4976599472708148  0.4072338807077905  1.0000
  C   C50       1.0  0.9381318921993121  0.9976599472976405  0.09276611936625377  1.0000
  C   C51       1.0  0.43813189190923985  0.5023400527828367  0.5927661194589999  1.0000
  C   C52       1.0  0.0618681081247712  0.0023400527560109782  0.9072338807978961  1.0000
  N   N1        1.0  0.5030456265742914  0.36589526215724033  0.3654969407420281  1.0000
  N   N2        1.0  0.9969543733301918  0.8658952621840662  0.1345030593320162  1.0000
  N   N3        1.0  0.49695437374979196  0.6341047378964112  0.6345030594221218  1.0000
  N   N4        1.0  0.003045626284219145  0.13410473786958535  0.8654969408347744  1.0000
  O   O1        1.0  0.521764483882964  0.6925388747396476  0.4396905436912086  1.0000
  O   O2        1.0  0.9782355160215191  0.19253887653263543  0.060309456382835705  1.0000
  O   O3        1.0  0.4782355157314469  0.3074611234941903  0.560309456475582  1.0000
  O   O4        1.0  0.021764484302564203  0.8074611235210161  0.9396905437813142  1.0000
  F   F1        1.0  0.7405217692678121  0.9114882504536174  0.18885572900418537  1.0000
  F   F2        1.0  0.759478230636671  0.4114882504267917  0.31114427106985887  1.0000
  F   F3        1.0  0.25947823105627127  0.08851174960003409  0.8111442711599646  1.0000
  F   F4        1.0  0.24052176891209492  0.5885117496268598  0.6888557285509668  1.0000
  F   F5        1.0  0.7848424730273188  0.5874005150554935  0.0873989782752036  1.0000
  F   F6        1.0  0.7151575275868368  0.0874005150286677  0.4126010217962  1.0000
  F   F7        1.0  0.21515752723111958  0.412599484998158  0.9126010213429816  1.0000
  F   F8        1.0  0.2848424727372466  0.9125994850249839  0.5873989783679499  1.0000
  F   F9        1.0  0.42711277004055087  0.5802207136432816  0.1812321062186766  1.0000
  F   F10       1.0  0.07288722976665465  0.08022071361645586  0.31876789386471865  1.0000
  F   F11       1.0  0.5728872295082151  0.4197792864103699  0.8187678934021492  1.0000
  F   F12       1.0  0.9271127705574287  0.9197792864371956  0.6812321062994313  1.0000
  F   F13       1.0  0.471446810256351  0.2581460650996055  0.07922064535142855  1.0000
  F   F14       1.0  0.028553190260526974  0.7581460651264312  0.4207793547293261  1.0000
  F   F15       1.0  0.5285531900677325  0.7418539349540461  0.9207793548127213  1.0000
  F   F16       1.0  0.9714468100635564  0.24185393492722024  0.5792206454348239  1.0000
  I   I1        1.0  0.5470987551941164  0.010200045880958688  0.2666425465153709  1.0000
  I   I2        1.0  0.9529012447103667  0.5102000459077844  0.23335745355867332  1.0000
  I   I3        1.0  0.45290124435464957  0.9897999541726927  0.7333574531054549  1.0000
  I   I4        1.0  0.047098755613716625  0.4897999541458671  0.7666425466054767  1.0000
  I   I5        1.0  0.6663036022806157  0.16897181055478397  0.0013362196687644419  1.0000
  I   I6        1.0  0.8336963976238674  0.6689718105816097  0.49866378040527976  1.0000
  I   I7        1.0  0.33369639733379525  0.8310281894988676  0.9986637804980262  1.0000
  I   I8        1.0  0.1663036027002159  0.33102818947204177  0.5013362197588701  1.0000
