data_image0
_chemical_formula_structural       H26B2C16N2O8
_chemical_formula_sum              "H26 B2 C16 N2 O8"
_cell_length_a       6.8737578915102295
_cell_length_b       7.443827413884277
_cell_length_c       9.822332435820133
_cell_angle_alpha    80.6768653250968
_cell_angle_beta     71.13076939061378
_cell_angle_gamma    80.96460599787149

_space_group_name_H-M_alt    "P 1"
_space_group_IT_number       1

loop_
  _space_group_symop_operation_xyz
  'x, y, z'

loop_
  _atom_site_type_symbol
  _atom_site_label
  _atom_site_symmetry_multiplicity
  _atom_site_fract_x
  _atom_site_fract_y
  _atom_site_fract_z
  _atom_site_occupancy
  H   H1        1.0  0.8625731888708338  0.5663399290539236  0.3217815793514229  1.0000
  H   H2        1.0  0.09148005577963798  0.4162500941114501  0.4297763392958374  1.0000
  H   H3        1.0  0.9841056368090255  0.05333367620701811  0.23061519545385462  1.0000
  H   H4        1.0  0.7973994066879708  0.07610313988613984  0.07793548186285079  1.0000
  H   H5        1.0  0.7968391344481379  0.20328002501767795  0.7733975351089755  1.0000
  H   H6        1.0  0.5121797856157038  0.10385873565994529  0.9852900208037866  1.0000
  H   H7        1.0  0.07261515004620149  0.35116740609318325  0.7619986113703476  1.0000
  H   H8        1.0  0.3570033174238629  0.46931350031561925  0.5561020023317872  1.0000
  H   H9        1.0  0.580512514905773  0.557783954781083  0.2265803466441233  1.0000
  H   H10       1.0  0.6371687740685082  0.7719604332999387  0.16497905798914336  1.0000
  H   H11       1.0  0.35658129405283995  0.8471725901231936  0.10538223650367991  1.0000
  H   H12       1.0  0.423732426023151  0.5201046605867448  0.9390348927081978  1.0000
  H   H13       1.0  0.3652814869598037  0.7559201459453452  0.8831516008093537  1.0000
  H   H14       1.0  0.7203735506419221  0.8169734727444865  0.845891176329206  1.0000
  H   H15       1.0  0.7619542022255769  0.5979892365162193  0.7840217657139403  1.0000
  H   H16       1.0  0.7840099665436617  0.43931797158669683  0.016957628447359558  1.0000
  H   H17       1.0  0.9176552898911814  0.6317774131230978  0.002287149283690913  1.0000
  H   H18       1.0  0.2571404819612375  0.03382219585304529  0.30909688284433573  1.0000
  H   H19       1.0  0.11699004177349316  0.14972253291025406  0.44948912565932525  1.0000
  H   H20       1.0  0.40001054771720596  0.18789846790784112  0.4870900341373894  1.0000
  H   H21       1.0  0.5108120864209064  0.7842575178473514  0.5643208762500462  1.0000
  H   H22       1.0  0.44907399531139214  0.9657320180065057  0.6746846508567005  1.0000
  H   H23       1.0  0.07824041897265041  0.9667138476108742  0.7161257750969772  1.0000
  H   H24       1.0  0.16270761873978556  0.7281770021100596  0.7144604278077292  1.0000
  H   H25       1.0  0.19909931151797877  0.7485904780486398  0.454068963008378  1.0000
  H   H26       1.0  0.9607029941015378  0.889456428926474  0.5201563861830755  1.0000
  B   B1        1.0  0.7792703418835321  0.4105382145542152  0.5115758373684064  1.0000
  B   B2        1.0  0.08897552440835883  0.14024840223892476  0.020215992564616984  1.0000
  C   C1        1.0  0.5992486756939012  0.34250579452009167  0.6466429370218821  1.0000
  C   C2        1.0  0.6385499935953766  0.2372564664609965  0.7694303934862156  1.0000
  C   C3        1.0  0.47733298987975914  0.1788539389539038  0.889429217538849  1.0000
  C   C4        1.0  0.2702110622128189  0.21562993637332217  0.889563561601292  1.0000
  C   C5        1.0  0.23094415419877667  0.3209778983079752  0.7666753005177163  1.0000
  C   C6        1.0  0.3914400067596832  0.3863636880611133  0.6495761975587088  1.0000
  C   C7        1.0  0.23339063880595143  0.5982977850836294  0.20792935218998523  1.0000
  C   C8        1.0  0.4043520643248026  0.7005357825410101  0.09761904630408397  1.0000
  C   C9        1.0  0.4569896278071781  0.6589918121994494  0.9409941318362524  1.0000
  C   C10       1.0  0.6898226968696598  0.6730906748407829  0.878385176483893  1.0000
  C   C11       1.0  0.7712670852291513  0.5894006926535549  0.0045258429738259005  1.0000
  C   C12       1.0  0.6129761951008823  0.02173881922301686  0.33601574106611526  1.0000
  C   C13       1.0  0.4135180516725715  0.04837939960223461  0.46028464985362116  1.0000
  C   C14       1.0  0.40427284123066837  0.9076318274173732  0.5952129930497543  1.0000
  C   C15       1.0  0.17953852669461198  0.8626756525606933  0.6498708590858604  1.0000
  C   C16       1.0  0.12567334086024662  0.869051879290107  0.5103454473321617  1.0000
  N   N1        1.0  0.6041697852066017  0.6541217233066141  0.1352448482226025  1.0000
  N   N2        1.0  0.22294892602060776  0.03402101337525126  0.4201479142379693  1.0000
  O   O1        1.0  0.7337420322692393  0.5310337192563482  0.4020271527368546  1.0000
  O   O2        1.0  0.9809079598361679  0.35098311402572047  0.5109491013746499  1.0000
  O   O3        1.0  0.11726404740971337  0.08652986026915188  0.15380552848441015  1.0000
  O   O4        1.0  0.9067369232614741  0.13085419450342964  0.9937446722767587  1.0000
  O   O5        1.0  0.058244518480960225  0.6290150775226565  0.18841166689516212  1.0000
  O   O6        1.0  0.28146090064541535  0.4951761531772373  0.31221968208448964  1.0000
  O   O7        1.0  0.7760344853954225  0.03522713179887226  0.3638091617799273  1.0000
  O   O8        1.0  0.6000739245181407  0.9915524705255774  0.21467185413222595  1.0000
