data_image0
_chemical_formula_structural       H36B2C22N2O10
_chemical_formula_sum              "H36 B2 C22 N2 O10"
_cell_length_a       7.4593020468954325
_cell_length_b       5.76689050452918
_cell_length_c       14.803974110040343
_cell_angle_alpha    90.0
_cell_angle_beta     103.03149945277538
_cell_angle_gamma    90.0

_space_group_name_H-M_alt    "P 1"
_space_group_IT_number       1

loop_
  _space_group_symop_operation_xyz
  'x, y, z'

loop_
  _atom_site_type_symbol
  _atom_site_label
  _atom_site_symmetry_multiplicity
  _atom_site_fract_x
  _atom_site_fract_y
  _atom_site_fract_z
  _atom_site_occupancy
  H   H1        1.0  0.7803130648980797  0.5576094461086935  0.8473268074581093  1.0000
  H   H2        1.0  0.21968693398773362  0.057609446501381716  0.15267319204607946  1.0000
  H   H3        1.0  0.5446526165923172  0.8358984232861826  0.8452667832581401  1.0000
  H   H4        1.0  0.4553473826112394  0.33589842367887085  0.1547332169393885  1.0000
  H   H5        1.0  0.24440224771651142  0.7679332434909059  0.6241305009516218  1.0000
  H   H6        1.0  0.7555977514870453  0.26793324388359413  0.3758694992459069  1.0000
  H   H7        1.0  0.07157108875755502  0.6054842045739646  0.4751167042030377  1.0000
  H   H8        1.0  0.9284289117848605  0.10548420496665284  0.5248832959906284  1.0000
  H   H9        1.0  0.16030757223131306  0.21980773676983306  0.4211118829667437  1.0000
  H   H10       1.0  0.8396924283111025  0.7198077363771449  0.5788881172269226  1.0000
  H   H11       1.0  0.4217094743821258  0.001642113716666299  0.5177517724597682  1.0000
  H   H12       1.0  0.578290524821431  0.501642113323978  0.4822482277377604  1.0000
  H   H13       1.0  0.59411123659345  0.16595096772660728  0.6666670169073712  1.0000
  H   H14       1.0  0.40588876394896545  0.665950967333919  0.33333298328629507  1.0000
  H   H15       1.0  0.22939523593941447  0.20096460459753743  0.9526936217878228  1.0000
  H   H16       1.0  0.7706047646030011  0.7009646042048492  0.04730637840584341  1.0000
  H   H17       1.0  0.05547909722445484  0.3736457382549037  0.9070940484006442  1.0000
  H   H18       1.0  0.9445209033179607  0.8736457378622154  0.09290595179302209  1.0000
  H   H19       1.0  0.8705556218331856  0.06433446407706503  0.8838820697495248  1.0000
  H   H20       1.0  0.12944437839148645  0.5643344636843768  0.11611792975080155  1.0000
  H   H21       1.0  0.07243077826564027  0.8290703449710014  0.7536377912243949  1.0000
  H   H22       1.0  0.9275692209379165  0.3290703453636897  0.2463622089731338  1.0000
  H   H23       1.0  0.8444649576645301  0.9396822214231413  0.7296652876125173  1.0000
  H   H24       1.0  0.1555350428778854  0.4396822218158295  0.27033471258114905  1.0000
  H   H25       1.0  0.11767297782995514  0.17110633351283996  0.6679507944708071  1.0000
  H   H26       1.0  0.8823270223947169  0.6711063331201517  0.3320492050295193  1.0000
  H   H27       1.0  0.9507732742709177  0.3310003230511902  0.7116936533194969  1.0000
  H   H28       1.0  0.04922672595375434  0.831000322658502  0.28830634618082945  1.0000
  H   H29       1.0  0.24417496355959892  0.4637141069177151  0.8118885708274858  1.0000
  H   H30       1.0  0.7558250353262144  0.9637141065250268  0.1881114286767029  1.0000
  H   H31       1.0  0.3351108523965229  0.17611933661690363  0.8176134058160358  1.0000
  H   H32       1.0  0.6648891481458927  0.6761193362242154  0.1823865943776304  1.0000
  H   H33       1.0  0.6521853208111608  0.06531631729511261  0.9815234073805067  1.0000
  H   H34       1.0  0.34781467973125474  0.5653163169024243  0.01847659281315952  1.0000
  H   H35       1.0  0.47072700083087293  0.908392867158779  0.9685793029148219  1.0000
  H   H36       1.0  0.5292729997115426  0.4083928675514673  0.031420697278844424  1.0000
  B   B1        1.0  0.5455318646993074  0.5865943609200154  0.7495467546415828  1.0000
  B   B2        1.0  0.45446813584310813  0.0865943613127037  0.2504532455520834  1.0000
  C   C1        1.0  0.4329892895788254  0.4800371114772901  0.6562127135524453  1.0000
  C   C2        1.0  0.5670107109635901  0.9800371110846019  0.343787286641221  1.0000
  C   C3        1.0  0.28295650673653794  0.5992016420783624  0.6010527344369917  1.0000
  C   C4        1.0  0.7170434924670189  0.09920164073701379  0.39894726576053696  1.0000
  C   C5        1.0  0.18580354734244575  0.5080353368421017  0.5168867221195128  1.0000
  C   C6        1.0  0.8141964531999697  0.008035337234789962  0.48311327807415344  1.0000
  C   C7        1.0  0.2356139874193979  0.2926796058767548  0.48674234578039965  1.0000
  C   C8        1.0  0.7643860131230175  0.7926796054840665  0.5132576544132665  1.0000
  C   C9        1.0  0.3823609146342384  0.16922504757694795  0.5410594403492512  1.0000
  C   C10       1.0  0.6176390845693184  0.6692250471842597  0.4589405598482774  1.0000
  C   C11       1.0  0.47984436388643503  0.2631375693379651  0.6246585940663741  1.0000
  C   C12       1.0  0.5201556363382371  0.763137568945277  0.3753414054339523  1.0000
  C   C13       1.0  0.08349363125614703  0.8117893839536678  0.9277603969712787  1.0000
  C   C14       1.0  0.9165063692862686  0.3117893826123193  0.07223960322238757  1.0000
  C   C15       1.0  0.003994831658203595  0.020437674325086298  0.8692346716297672  1.0000
  C   C16       1.0  0.996005168884212  0.520437673932398  0.13076532856389902  1.0000
  C   C17       1.0  0.9872400193842227  0.9776602530552644  0.7642796985399943  1.0000
  C   C18       1.0  0.012759979819334117  0.47766025171391596  0.23572030165753433  1.0000
  C   C19       1.0  0.06041486465424638  0.20053864540894686  0.7288406255827915  1.0000
  C   C20       1.0  0.939585135888169  0.7005386450162586  0.27115937461087464  1.0000
  C   C21       1.0  0.20945306543787723  0.2792603342711604  0.8110363462994347  1.0000
  C   C22       1.0  0.7905469337656795  0.7792603338784723  0.18896365389809386  1.0000
  N   N1        1.0  0.12798662319291548  0.22674081447758546  0.8927481648751819  1.0000
  N   N2        1.0  0.8720133773495  0.7267408140848972  0.10725183531848431  1.0000
  O   O1        1.0  0.7028708375827049  0.4735802592150951  0.7940796308815586  1.0000
  O   O2        1.0  0.2971291626419672  0.9735802588224068  0.20592036861876767  1.0000
  O   O3        1.0  0.48015849362855034  0.7856539388846783  0.7818019215107677  1.0000
  O   O4        1.0  0.519841505257263  0.2856539392773665  0.21819807799342109  1.0000
  O   O5        1.0  0.9756375904096515  0.6401023336754635  0.925879191626158  1.0000
  O   O6        1.0  0.024362408793905145  0.14010233233411512  0.07412080857137064  1.0000
  O   O7        1.0  0.24967497263445151  0.8168825671824689  0.972635385583103  1.0000
  O   O8        1.0  0.7503250279079641  0.3168825675751571  0.02736461461056317  1.0000
  O   O9        1.0  0.5983642741178804  0.9106703336703565  0.9600240073769358  1.0000
  O   O10       1.0  0.40163572508567635  0.41067033406304493  0.03997599282059292  1.0000
