data_image0
_chemical_formula_structural       H40C42N12O14
_chemical_formula_sum              "H40 C42 N12 O14"
_cell_length_a       8.71897147717443
_cell_length_b       11.43806418351113
_cell_length_c       12.39800081135232
_cell_angle_alpha    115.97565335317829
_cell_angle_beta     93.4924068993614
_cell_angle_gamma    108.37356322471499

_space_group_name_H-M_alt    "P 1"
_space_group_IT_number       1

loop_
  _space_group_symop_operation_xyz
  'x, y, z'

loop_
  _atom_site_type_symbol
  _atom_site_label
  _atom_site_symmetry_multiplicity
  _atom_site_fract_x
  _atom_site_fract_y
  _atom_site_fract_z
  _atom_site_occupancy
  H   H1        1.0  0.7401472334844815  0.35335736783448246  0.8672720309091257  1.0000
  H   H2        1.0  0.25985276667539375  0.6466426317057227  0.13272796888117525  1.0000
  H   H3        1.0  0.25692403519223567  0.5843516391058485  0.5046423380687217  1.0000
  H   H4        1.0  0.7430759653361906  0.41564836135416744  0.4953576617190787  1.0000
  H   H5        1.0  0.21726971165965323  0.7043351990227761  0.8065144372041873  1.0000
  H   H6        1.0  0.7827302891749721  0.29566480194748995  0.19348556350619006  1.0000
  H   H7        1.0  0.353608460771778  0.4777686767314063  0.875735661541059  1.0000
  H   H8        1.0  0.6463915396942963  0.522231323319049  0.12426433917181894  1.0000
  H   H9        1.0  0.5544432713415266  0.6100572969290482  0.964047766959273  1.0000
  H   H10       1.0  0.4455567280401741  0.3899427035284782  0.03595223284085379  1.0000
  H   H11       1.0  0.46703377957098224  0.37832266088467403  0.5697092174643379  1.0000
  H   H12       1.0  0.532966220588893  0.6216773386555312  0.4302907823259632  1.0000
  H   H13       1.0  0.2957365077273547  0.3726381180341587  0.6368084326963601  1.0000
  H   H14       1.0  0.7042634928010716  0.6273618824258573  0.3631915670914404  1.0000
  H   H15       1.0  0.6575081048223904  0.6641814675649557  0.7463930521499742  1.0000
  H   H16       1.0  0.342491895643684  0.3358185324854997  0.2536069485629038  1.0000
  H   H17       1.0  0.4294016832733253  0.8541194588569129  0.5931331538799102  1.0000
  H   H18       1.0  0.5705983157398244  0.1458805406808029  0.40686684592271727  1.0000
  H   H19       1.0  0.35593776264892757  0.02894374247624386  0.5474530529937661  1.0000
  H   H20       1.0  0.6440622370389725  0.9710562584915329  0.4525469477289377  1.0000
  H   H21       1.0  0.9294329155608168  0.6772828547341773  0.2718166172647071  1.0000
  H   H22       1.0  0.0705670834523328  0.3227171448035385  0.7281833825379204  1.0000
  H   H23       1.0  0.01465291516094396  0.5219310908804805  0.33266484169693983  1.0000
  H   H24       1.0  0.9853470842207567  0.47806890957704606  0.6673351581031871  1.0000
  H   H25       1.0  0.06514715167432557  0.35013441201547885  0.3321280428347432  1.0000
  H   H26       1.0  0.9348528488541007  0.6498655884445371  0.6678719569530573  1.0000
  H   H27       1.0  0.15542973764389134  0.1975860122941369  0.3933173646464351  1.0000
  H   H28       1.0  0.844570262515984  0.8024139872460684  0.606682635143866  1.0000
  H   H29       1.0  0.6906111424332999  0.8565816447429787  0.16250977883890935  1.0000
  H   H30       1.0  0.3093888577265753  0.1434183547972264  0.8374902209513917  1.0000
  H   H31       1.0  0.6185579265477097  0.02508995342810431  0.10947270899303845  1.0000
  H   H32       1.0  0.38144207398071667  0.9749100470319118  0.890527290794762  1.0000
  H   H33       1.0  0.02031259168725415  0.4104940758781146  0.9972171868962206  1.0000
  H   H34       1.0  0.9796874091473714  0.5895059250921518  0.002782813814156974  1.0000
  H   H35       1.0  0.11837765727975244  0.25723931677832185  0.05225988529401854  1.0000
  H   H36       1.0  0.8816223428801229  0.7427606827618835  0.9477401144962826  1.0000
  H   H37       1.0  0.6532113913464732  0.9132393183547751  0.8225462994970324  1.0000
  H   H38       1.0  0.3467886080352274  0.08676068210275124  0.17745370030309446  1.0000
  H   H39       1.0  0.5739330014612106  0.08598227684571266  0.7766823903839314  1.0000
  H   H40       1.0  0.4260669990048638  0.9140177232047427  0.22331761032894654  1.0000
  C   C1        1.0  0.3993443882835724  0.6770746379323822  0.8836096685205376  1.0000
  C   C2        1.0  0.6006556122448539  0.3229253625276339  0.11639033126726302  1.0000
  C   C3        1.0  0.4585651635526114  0.5650197485741365  0.8801146235821451  1.0000
  C   C4        1.0  0.541434836975815  0.4349802518858796  0.1198853762056556  1.0000
  C   C5        1.0  0.537326845177116  0.5053248236130545  0.7680807643203945  1.0000
  C   C6        1.0  0.4626731549827592  0.4946751759271507  0.23191923546990645  1.0000
  C   C7        1.0  0.4185354817510604  0.4435713045003441  0.642848917628244  1.0000
  C   C8        1.0  0.5814645175682884  0.5564286955476218  0.35715108309696025  1.0000
  C   C9        1.0  0.3997828518165005  0.5520110416015301  0.6100759289162714  1.0000
  C   C10       1.0  0.6002171471966491  0.44798895793618554  0.3899240708863559  1.0000
  C   C11       1.0  0.57843051779655  0.3878706228722526  0.7773919245860471  1.0000
  C   C12       1.0  0.42156948266952454  0.6121293771782029  0.22260807612683087  1.0000
  C   C13       1.0  0.319579057710602  0.8215247287473343  0.5236974594311955  1.0000
  C   C14       1.0  0.6804209413025475  0.17847527079038136  0.4763025403714318  1.0000
  C   C15       1.0  0.28037768315384404  0.9165623324904305  0.49712808999868374  1.0000
  C   C16       1.0  0.7196223170060313  0.08343766704977477  0.5028719097916173  1.0000
  C   C17       1.0  0.13724059827023136  0.8647910178002939  0.40594853584218493  1.0000
  C   C18       1.0  0.862759401889644  0.1352089817399113  0.594051463948116  1.0000
  C   C19       1.0  0.03982640126473602  0.720324786248635  0.3440773675482046  1.0000
  C   C20       1.0  0.9601735992636904  0.279675214211381  0.6559226322395959  1.0000
  C   C21       1.0  0.08800546075607925  0.6342312837828374  0.37754578797204924  1.0000
  C   C22       1.0  0.9119945386256216  0.3657687166746892  0.6224542118280777  1.0000
  C   C23       1.0  0.983941033824563  0.2409950820050589  0.29789202792603675  1.0000
  C   C24       1.0  0.01605896633531233  0.7590049175351464  0.7021079718642643  1.0000
  C   C25       1.0  0.03503660255897195  0.15602828880103004  0.3316082008565992  1.0000
  C   C26       1.0  0.9649633976009032  0.8439717107391752  0.6683917989337018  1.0000
  C   C27       1.0  0.9273269730182566  0.015177953790671576  0.2830724730372518  1.0000
  C   C28       1.0  0.07267302714161862  0.9848220457495336  0.7169275267530492  1.0000
  C   C29       1.0  0.7750662604142587  0.9657598361732256  0.20197503726182542  1.0000
  C   C30       1.0  0.22493373974561656  0.03424016336697976  0.7980249625284757  1.0000
  C   C31       1.0  0.7341974099326186  0.059039425767131934  0.17368582180512915  1.0000
  C   C32       1.0  0.2658025905958077  0.9409605746928842  0.8263141779826714  1.0000
  C   C33       1.0  0.9428160891073801  0.2995878391583498  0.9591146856301841  1.0000
  C   C34       1.0  0.05718391105249507  0.7004121603818554  0.04088531416011689  1.0000
  C   C35       1.0  0.9980198931167814  0.21430491180610164  0.9893284759560758  1.0000
  C   C36       1.0  0.0019801070430936823  0.7856950877341033  0.010671523834225144  1.0000
  C   C37       1.0  0.8912648642488894  0.07304660298128726  0.9394638436852327  1.0000
  C   C38       1.0  0.10873513621718503  0.9269533970691681  0.06053615702764523  1.0000
  C   C39       1.0  0.7366021238837738  0.022666367376976304  0.8608301994148743  1.0000
  C   C40       1.0  0.26339787658230057  0.9773336326734791  0.1391698012980036  1.0000
  C   C41       1.0  0.692840944256181  0.11672333640359446  0.8358789460340103  1.0000
  C   C42       1.0  0.3071590559036943  0.8832766631366108  0.16412105375629074  1.0000
  N   N1        1.0  0.2247824843779631  0.6836396349264814  0.4658011452193041  1.0000
  N   N2        1.0  0.7752175161504632  0.31636036553353475  0.5341988545684965  1.0000
  N   N3        1.0  0.10187616982668368  0.964969891863575  0.38142456580847295  1.0000
  N   N4        1.0  0.8981238310079418  0.0350301091066913  0.6185754349019046  1.0000
  N   N5        1.0  0.9621378204244152  0.915599126303828  0.30885553507817876  1.0000
  N   N6        1.0  0.037862180410210326  0.08440087466643831  0.6911444656321987  1.0000
  N   N7        1.0  0.8362646676192482  0.19438017382691325  0.22174692829948878  1.0000
  N   N8        1.0  0.16373533321537717  0.8056198271433529  0.7782530724108887  1.0000
  N   N9        1.0  0.7936091444721526  0.2523022903299056  0.8846354236938786  1.0000
  N   N10       1.0  0.20639085454099712  0.74769770920781  0.11536457610874874  1.0000
  N   N11       1.0  0.9299245902000041  0.9740439071088456  0.9635689804322837  1.0000
  N   N12       1.0  0.07007540995987104  0.025956092431359608  0.03643101935801739  1.0000
  O   O1        1.0  0.7128327995797389  0.4383671003237735  0.8639623547841943  1.0000
  O   O2        1.0  0.2871672001081611  0.5616329006440033  0.1360376459385097  1.0000
  O   O3        1.0  0.4902368347255247  0.2618556512947983  0.7129611774608613  1.0000
  O   O4        1.0  0.509763164656176  0.7381443491627282  0.2870388223392656  1.0000
  O   O5        1.0  0.5081638275001686  0.6726534196691156  0.6520941127034497  1.0000
  O   O6        1.0  0.4918361726597066  0.32734657987108956  0.3479058870868513  1.0000
  O   O7        1.0  0.26218323301654256  0.5050133096970526  0.5281326094584471  1.0000
  O   O8        1.0  0.7378167675118837  0.49498669076296337  0.47186739032935343  1.0000
  O   O9        1.0  0.484900707685452  0.8038119099934409  0.9426748626241865  1.0000
  O   O10       1.0  0.5150992928429743  0.1961880904665751  0.057325137163614  1.0000
  O   O11       1.0  0.24680800735158234  0.623734118508581  0.8136343737341839  1.0000
  O   O12       1.0  0.7531919928082929  0.3762658810316243  0.1863656260561171  1.0000
  O   O13       1.0  0.690145054545585  0.6087404185106352  0.7799705736326185  1.0000
  O   O14       1.0  0.3098549448361158  0.3912595819468913  0.2200294261675085  1.0000
