data_image0
_chemical_formula_structural       H52C44N6O12Cl2
_chemical_formula_sum              "H52 C44 N6 O12 Cl2"
_cell_length_a       9.30655918123306
_cell_length_b       9.736462843160371
_cell_length_c       13.746721292333593
_cell_angle_alpha    74.03517913153561
_cell_angle_beta     85.96275838483783
_cell_angle_gamma    65.16308717505152

_space_group_name_H-M_alt    "P 1"
_space_group_IT_number       1

loop_
  _space_group_symop_operation_xyz
  'x, y, z'

loop_
  _atom_site_type_symbol
  _atom_site_label
  _atom_site_symmetry_multiplicity
  _atom_site_fract_x
  _atom_site_fract_y
  _atom_site_fract_z
  _atom_site_occupancy
  H   H1        1.0  0.6362918715639125  0.4294866333711319  0.9506963576687812  1.0000
  H   H2        1.0  0.3637081272494484  0.5705133672901205  0.04930364196795487  1.0000
  H   H3        1.0  0.6691768813314893  0.2595232586282133  0.9376120027974902  1.0000
  H   H4        1.0  0.3308231186171891  0.7404767417155593  0.06238799759683274  1.0000
  H   H5        1.0  0.05549838682918071  0.39427183188555304  0.9267085023450479  1.0000
  H   H6        1.0  0.9445016130612534  0.6057281687698457  0.07329149729164783  1.0000
  H   H7        1.0  0.008747986432936238  0.5973873242304568  0.8932102286311527  1.0000
  H   H8        1.0  0.9912520135157422  0.40261267611331586  0.10678977176317042  1.0000
  H   H9        1.0  0.4432293503184679  0.38895583574530196  0.9389343493191107  1.0000
  H   H10       1.0  0.5567706496302105  0.6110441645984707  0.061065651075212495  1.0000
  H   H11       1.0  0.6445383022800022  0.9386677788082501  0.8597937223855963  1.0000
  H   H12       1.0  0.3554616976686763  0.06133222153552235  0.14020627800872693  1.0000
  H   H13       1.0  0.5355876166427348  0.20945638732438626  0.766622973239148  1.0000
  H   H14       1.0  0.4644123832476992  0.7905436133310124  0.23337702639754776  1.0000
  H   H15       1.0  0.42260676226547544  0.17358132540567767  0.6835417308109489  1.0000
  H   H16       1.0  0.5773932376249583  0.8264186752497211  0.31645826882574674  1.0000
  H   H17       1.0  0.48729522277166576  0.2139348338009973  0.4908626221189947  1.0000
  H   H18       1.0  0.5127047771187684  0.7860651668544013  0.509137377517701  1.0000
  H   H19       1.0  0.918476098894819  0.46867482742855354  0.3129133814591502  1.0000
  H   H20       1.0  0.0815239014877493  0.5313251720931079  0.6870866181823689  1.0000
  H   H21       1.0  0.429507232955678  0.9040831439142234  0.723973721464904  1.0000
  H   H22       1.0  0.5704927674851347  0.09591685529581213  0.2760262789342424  1.0000
  H   H23       1.0  0.5471773330310955  0.7580311862022671  0.8331023572311834  1.0000
  H   H24       1.0  0.452822667351473  0.24196881331939454  0.16689764241033547  1.0000
  H   H25       1.0  0.7855967875599859  0.5638839673423336  0.4600694953249106  1.0000
  H   H26       1.0  0.21440321233044787  0.4361160333130652  0.5399305043117851  1.0000
  H   H27       1.0  0.679154237668142  0.16990130877943205  0.6098151973364346  1.0000
  H   H28       1.0  0.32084576222229216  0.8300986918759665  0.390184802300261  1.0000
  H   H29       1.0  0.7854817521410433  0.024938654101775516  0.7192748407156546  1.0000
  H   H30       1.0  0.21451824829976937  0.9750613451082599  0.2807251596834918  1.0000
  H   H31       1.0  0.931030442391666  0.20088677191070253  0.2643925789238536  1.0000
  H   H32       1.0  0.06896955755701248  0.7991132284330703  0.7356074214704695  1.0000
  H   H33       1.0  0.7931374356423055  0.75376872786656  0.756251717165842  1.0000
  H   H34       1.0  0.20686256479850704  0.24623127134347553  0.24374828323330433  1.0000
  H   H35       1.0  0.6850201810904629  0.7216537689973469  0.67094412969028  1.0000
  H   H36       1.0  0.3149798188582155  0.27834623134642583  0.32905587070404324  1.0000
  H   H37       1.0  0.39950821982143064  0.12531859811821522  0.9087392139557557  1.0000
  H   H38       1.0  0.6004917806193819  0.8746814010918204  0.09126078644339064  1.0000
  H   H39       1.0  0.4057221572325555  0.9307019072889406  0.9388154385854816  1.0000
  H   H40       1.0  0.5942778426578785  0.06929809336645809  0.06118456105121412  1.0000
  H   H41       1.0  0.2860367224732066  0.08147956058695843  0.8321272328462269  1.0000
  H   H42       1.0  0.7139632779093618  0.918520438934703  0.1678727667952922  1.0000
  H   H43       1.0  0.6862441631649799  0.451882013648925  0.2458615693447266  1.0000
  H   H44       1.0  0.3137558367836986  0.5481179866948477  0.7541384310495964  1.0000
  H   H45       1.0  0.08216086678054754  0.5955226471118298  0.2057358608731237  1.0000
  H   H46       1.0  0.9178391336602653  0.40447735209820573  0.7942641395260227  1.0000
  H   H47       1.0  0.10488274382203976  0.8201169212065889  0.24569154204373062  1.0000
  H   H48       1.0  0.8951172566187728  0.17988307800344686  0.7543084583554158  1.0000
  H   H49       1.0  0.9992811458261003  0.8403565889390474  0.05913993710666517  1.0000
  H   H50       1.0  0.000718854556468029  0.1596434105826142  0.9408600625348539  1.0000
  H   H51       1.0  0.09095894804113552  0.8712283049659658  0.9453716474077509  1.0000
  H   H52       1.0  0.9090410519075429  0.12877169537780697  0.05462835298657231  1.0000
  C   C1        1.0  0.22068175736325452  0.453694148292746  0.9841282541808666  1.0000
  C   C2        1.0  0.7793182430193138  0.5463058512289155  0.01587174546065238  1.0000
  C   C3        1.0  0.05364776534530449  0.4889307373267547  0.9560286822717581  1.0000
  C   C4        1.0  0.9463522334680564  0.5110692633344976  0.043971317364978064  1.0000
  C   C5        1.0  0.5328332524151776  0.12345373540254166  0.7305077661340356  1.0000
  C   C6        1.0  0.467166748025635  0.8765462638074939  0.2694922342651107  1.0000
  C   C7        1.0  0.957426545506509  0.8169160414165398  0.3731412335545904  1.0000
  C   C8        1.0  0.04257345438392494  0.1830839592388587  0.6268587660821052  1.0000
  C   C9        1.0  0.7435175650985387  0.9265643138025894  0.5357934897941309  1.0000
  C   C10       1.0  0.25648243534227405  0.07343568540744604  0.4642065106050155  1.0000
  C   C11       1.0  0.7257345995283402  0.0719079646434137  0.4560650743796034  1.0000
  C   C12       1.0  0.2742654003620938  0.9280920360119849  0.5439349252570922  1.0000
  C   C13       1.0  0.5869357468378831  0.21130259168375978  0.4435733555237449  1.0000
  C   C14       1.0  0.41306425360292953  0.7886974075262759  0.5564266448754015  1.0000
  C   C15       1.0  0.9272825798900756  0.5689186932073212  0.32811432533276536  1.0000
  C   C16       1.0  0.07271742055073722  0.43108130600271427  0.671885675066381  1.0000
  C   C17       1.0  0.5400634791124238  0.8584677898864  0.7698293792661923  1.0000
  C   C18       1.0  0.4599365212701446  0.14153220963526153  0.2301706203753266  1.0000
  C   C19       1.0  0.8469697964439459  0.07116658836203676  0.3892054165456198  1.0000
  C   C20       1.0  0.15303020344648807  0.9288334122933619  0.610794583091076  1.0000
  C   C21       1.0  0.8520057310066005  0.6219545767552283  0.4103027662962007  1.0000
  C   C22       1.0  0.14799426894207798  0.37804542358854437  0.5896972340981224  1.0000
  C   C23       1.0  0.6785427899063443  0.06976045923151136  0.6697436495530363  1.0000
  C   C24       1.0  0.321457210476224  0.9302395402901502  0.3302563500884827  1.0000
  C   C25       1.0  0.8338448204691531  0.20661115152172918  0.3146505600298093  1.0000
  C   C26       1.0  0.16615517947952518  0.7933888488220436  0.6853494403645137  1.0000
  C   C27       1.0  0.5751863471789995  0.34633468210062385  0.3693676237451951  1.0000
  C   C28       1.0  0.42481365320356884  0.6536653174210376  0.6306323758963239  1.0000
  C   C29       1.0  0.6842458889740398  0.8093486860516516  0.7066738277775155  1.0000
  C   C30       1.0  0.31575411091639405  0.19065131460374726  0.29332617185918014  1.0000
  C   C31       1.0  0.3971086155274962  0.033923163951266495  0.8778175990242951  1.0000
  C   C32       1.0  0.6028913849133166  0.9660768352587692  0.12218240137485116  1.0000
  C   C33       1.0  0.8639528177175684  0.7483587634847609  0.43498379395146586  1.0000
  C   C34       1.0  0.13604718109579236  0.2516412371764915  0.5650162056852703  1.0000
  C   C35       1.0  0.6980163459712007  0.34620319011377626  0.30483074102585184  1.0000
  C   C36       1.0  0.3019836544113676  0.6537968094078853  0.6951692586156671  1.0000
  C   C37       1.0  0.01809826538928879  0.6398884234178447  0.2680018740929482  1.0000
  C   C38       1.0  0.9819017345593896  0.3601115769259279  0.731998126301375  1.0000
  C   C39       1.0  0.03245871941587022  0.7650351030561272  0.2908471288201677  1.0000
  C   C40       1.0  0.9675412804745639  0.23496489759927147  0.7091528708165279  1.0000
  C   C41       1.0  0.9914660362930412  0.9311962728213152  0.9888466133660669  1.0000
  C   C42       1.0  0.008533963655636969  0.06880372752245754  0.011153387028256013  1.0000
  C   C43       1.0  0.839173477901813  0.9750136934309079  0.9292604676261118  1.0000
  C   C44       1.0  0.16082652091154803  0.02498630723034424  0.07073953201062447  1.0000
  N   N1        1.0  0.5338360977591783  0.9860884329223516  0.8131215341960721  1.0000
  N   N2        1.0  0.46616390218949993  0.013911567421421167  0.18687846619825096  1.0000
  N   N3        1.0  0.6829313088935905  0.945546799072168  0.6279345085011888  1.0000
  N   N4        1.0  0.3170686909968436  0.05445320158323074  0.3720654911355069  1.0000
  N   N5        1.0  0.7981355961465886  0.7864786172313806  0.5225041251107968  1.0000
  N   N6        1.0  0.2018644031589067  0.21352138229613468  0.47749587453076275  1.0000
  O   O1        1.0  0.5967694972127041  0.3452427065723303  0.9690131197524625  1.0000
  O   O2        1.0  0.40323050267772986  0.6547572940830684  0.03098687988423317  1.0000
  O   O3        1.0  0.2567151623098858  0.46731629996629737  0.06569322874043443  1.0000
  O   O4        1.0  0.7432848376387926  0.5326837003774753  0.9343067716538888  1.0000
  O   O5        1.0  0.3234635401826553  0.4115795229540927  0.9152585636038421  1.0000
  O   O6        1.0  0.6765364601999131  0.5884204765675688  0.0847414360376769  1.0000
  O   O7        1.0  0.9847483962413365  0.9350269814378981  0.39800913770169166  1.0000
  O   O8        1.0  0.015251604199476328  0.06497301777213745  0.6019908626974547  1.0000
  O   O9        1.0  0.7490258436482964  0.11875460703911757  0.889662776870446  1.0000
  O   O10       1.0  0.25097415679251633  0.8812453921709179  0.11033722352870036  1.0000
  O   O11       1.0  0.8091085812361872  0.8627984356323785  0.9194070191962631  1.0000
  O   O12       1.0  0.19089141871249107  0.1372015647113942  0.08059298119805991  1.0000
  Cl  Cl1       1.0  0.40184029489449635  0.516177935213492  0.35542891783790687  1.0000
  Cl  Cl2       1.0  0.5981597044109987  0.4838220643140234  0.6445710818036526  1.0000
