data_image0
_chemical_formula_structural       H44C60N8O12
_chemical_formula_sum              "H44 C60 N8 O12"
_cell_length_a       7.19233596596567
_cell_length_b       7.49073932284737
_cell_length_c       22.355081228650022
_cell_angle_alpha    91.054523219694
_cell_angle_beta     95.93021185445514
_cell_angle_gamma    102.96959769866969

_space_group_name_H-M_alt    "P 1"
_space_group_IT_number       1

loop_
  _space_group_symop_operation_xyz
  'x, y, z'

loop_
  _atom_site_type_symbol
  _atom_site_label
  _atom_site_symmetry_multiplicity
  _atom_site_fract_x
  _atom_site_fract_y
  _atom_site_fract_z
  _atom_site_occupancy
  H   H1        1.0  0.8092323252952971  0.5695637127502268  0.6100675709345007  1.0000
  H   H2        1.0  0.19076767404803088  0.43043628642152065  0.38993242866139466  1.0000
  H   H3        1.0  0.3751531436225045  0.8866979553851091  0.7569039923605125  1.0000
  H   H4        1.0  0.6248468558725194  0.11330204384458463  0.24309600768552495  1.0000
  H   H5        1.0  0.31395702335273784  0.40760715700664685  0.7430273281761018  1.0000
  H   H6        1.0  0.6860429778548541  0.5923928435917851  0.25697267187230305  1.0000
  H   H7        1.0  0.38274300831420344  0.47991868029807194  0.6728628505609945  1.0000
  H   H8        1.0  0.6172569915026569  0.5200813203015888  0.32713714948533806  1.0000
  H   H9        1.0  0.7327890064753854  0.18766319837502574  0.7673258830561159  1.0000
  H   H10       1.0  0.2672109930196385  0.812336800854668  0.2326741169899215  1.0000
  H   H11       1.0  0.2729643007046852  0.2142292152815539  0.8823373563678912  1.0000
  H   H12       1.0  0.7270357001810702  0.7857707839469109  0.11766264368021857  1.0000
  H   H13       1.0  0.5780008796220601  0.25958598208572126  0.12542097803275404  1.0000
  H   H14       1.0  0.4219991201948002  0.7404140185139394  0.8745790220135785  1.0000
  H   H15       1.0  0.8604553266801307  0.42713625890447654  0.19572499354623504  1.0000
  H   H16       1.0  0.13954467281489316  0.5728637403252171  0.8042750064998024  1.0000
  H   H17       1.0  0.186240845612174  0.4909297762981828  0.15979886504248844  1.0000
  H   H18       1.0  0.8137591552735814  0.5090702229302819  0.8402011350056212  1.0000
  H   H19       1.0  0.631315983442429  0.05986621743538156  0.9526801203003334  1.0000
  H   H20       1.0  0.3686840177651629  0.9401337831630503  0.04731987974807152  1.0000
  H   H21       1.0  0.6897082350370066  0.9434121619723355  0.8505733453516428  1.0000
  H   H22       1.0  0.31029176445801726  0.056587837257358185  0.14942665469439473  1.0000
  H   H23       1.0  0.023215789476931585  0.029609058658263857  0.8197683309509789  1.0000
  H   H24       1.0  0.9767842100180925  0.9703909405714298  0.1802316690950587  1.0000
  H   H25       1.0  0.4192864116296852  0.34714720007952693  0.9761478444045598  1.0000
  H   H26       1.0  0.5807135895779066  0.652852800518905  0.023852155643845106  1.0000
  H   H27       1.0  0.38549161290481065  0.46493545724403923  0.07940883641714819  1.0000
  H   H28       1.0  0.6145083865902132  0.5350645419856546  0.9205911636288894  1.0000
  H   H29       1.0  0.33485171182849377  0.07355114594917733  0.32633801725026906  1.0000
  H   H30       1.0  0.6651482879883666  0.9264488546504834  0.6736619827960635  1.0000
  H   H31       1.0  0.012661240831329197  0.0857205640354542  0.27562612279076276  1.0000
  H   H32       1.0  0.9873387602245666  0.9142794365050315  0.7243738768075001  1.0000
  H   H33       1.0  0.719227433273075  0.937706950093347  0.32422128270738076  1.0000
  H   H34       1.0  0.2807725665437853  0.06229305050631387  0.6757787173389518  1.0000
  H   H35       1.0  0.633507971327396  0.644007182347902  0.5122996228983087  1.0000
  H   H36       1.0  0.36649202833776834  0.3559928181938126  0.4877003766978818  1.0000
  H   H37       1.0  0.5807285000195103  0.773528524521196  0.4120524818831506  1.0000
  H   H38       1.0  0.41927149947551356  0.2264714747084977  0.5879475181628868  1.0000
  H   H39       1.0  0.4137546363874271  0.8570324535173975  0.49333633931037757  1.0000
  H   H40       1.0  0.5862453631075968  0.14296754571229622  0.5066636607356599  1.0000
  H   H41       1.0  0.447246459190757  0.727526228486329  0.5959514030049075  1.0000
  H   H42       1.0  0.5527535416949985  0.27247377074213586  0.4040485970432024  1.0000
  H   H43       1.0  0.1429849381826798  0.5916216893285045  0.6427624325945954  1.0000
  H   H44       1.0  0.8570150613123441  0.4083783099011893  0.35723756745144203  1.0000
  C   C1        1.0  0.4902687196910651  0.674760723785481  0.7460081053542875  1.0000
  C   C2        1.0  0.5097312811946904  0.3252392754429838  0.25399189469382233  1.0000
  C   C3        1.0  0.43644868675482495  0.4793067143099325  0.7205377444570332  1.0000
  C   C4        1.0  0.5635513130620354  0.5206932862897282  0.2794622555892995  1.0000
  C   C5        1.0  0.6005134902515602  0.38643301882439707  0.7273839217627923  1.0000
  C   C6        1.0  0.3994865095653001  0.6135669817752637  0.27261607828354023  1.0000
  C   C7        1.0  0.7573559278295365  0.4459236011105263  0.6878503891907706  1.0000
  C   C8        1.0  0.24264407305621896  0.5540763981179385  0.31214961085733933  1.0000
  C   C9        1.0  0.6129105313099869  0.2552313689406099  0.7667008422762963  1.0000
  C   C10       1.0  0.38708946850687354  0.7447686316590508  0.23329915777003638  1.0000
  C   C11       1.0  0.46547506171487085  0.19226956163430592  0.8089144933074762  1.0000
  C   C12       1.0  0.5345249381019895  0.8077304389653548  0.19108550673885635  1.0000
  C   C13       1.0  0.7214789087672611  0.2887920929645356  0.11079228774903672  1.0000
  C   C14       1.0  0.27852109211849435  0.7112079062639293  0.889207712299073  1.0000
  C   C15       1.0  0.8793729066267235  0.38491854936681247  0.15031598007908814  1.0000
  C   C16       1.0  0.12062709319013686  0.6150814512328483  0.8496840199672445  1.0000
  C   C17       1.0  0.05910427596949106  0.42065266300741755  0.1306930804698686  1.0000
  C   C18       1.0  0.9408957235255329  0.5793473362222763  0.8693069195761689  1.0000
  C   C19       1.0  0.07852360875599845  0.36008064447047117  0.0719666109498277  1.0000
  C   C20       1.0  0.9214763907390254  0.6399193547592225  0.9280333890962097  1.0000
  C   C21       1.0  0.9106104833518679  0.26213903702390284  0.035840299718424784  1.0000
  C   C22       1.0  0.08938951753388763  0.7378609622045621  0.964159700329685  1.0000
  C   C23       1.0  0.9292121359337343  0.194779074273934  0.9761698240291719  1.0000
  C   C24       1.0  0.0707878649520211  0.8052209249545308  0.023830176018938116  1.0000
  C   C25       1.0  0.773892481156181  0.09142256226763967  0.9374661290889151  1.0000
  C   C26       1.0  0.2261075183388429  0.908577436962054  0.06253387095712222  1.0000
  C   C27       1.0  0.803837671761945  0.02818216410275492  0.8813639592092974  1.0000
  C   C28       1.0  0.19616232805491549  0.9718178364969058  0.11863604083703513  1.0000
  C   C29       1.0  0.9877791726738032  0.07250184924425258  0.8631535159902581  1.0000
  C   C30       1.0  0.012220827143057052  0.9274981513554081  0.1368464840560745  1.0000
  C   C31       1.0  0.11448238172546822  0.23222913349017316  0.9559806761538835  1.0000
  C   C32       1.0  0.8855176180913921  0.7677708671094875  0.044019323892449044  1.0000
  C   C33       1.0  0.2801468879066725  0.3285062532684051  0.9931381853077381  1.0000
  C   C34       1.0  0.7198531117584918  0.6714937472733095  0.006861814288452394  1.0000
  C   C35       1.0  0.2614810507421767  0.390666367041561  0.049562980991956405  1.0000
  C   C36       1.0  0.7385189490746836  0.6093336335580998  0.9504370190543762  1.0000
  C   C37       1.0  0.20575222199082424  0.013567453490880368  0.34721470640949254  1.0000
  C   C38       1.0  0.7942477778260361  0.9864325471087804  0.65278529363684  1.0000
  C   C39       1.0  0.0237756647776654  0.0173677007269153  0.3179840463749535  1.0000
  C   C40       1.0  0.9762243347173586  0.9826322985027786  0.6820159536710839  1.0000
  C   C41       1.0  0.8630044251016805  0.9378899770363665  0.34505809516311875  1.0000
  C   C42       1.0  0.1369955747151798  0.06211002356329435  0.6549419048832138  1.0000
  C   C43       1.0  0.8855344932095973  0.8584210270256589  0.40131357049761474  1.0000
  C   C44       1.0  0.11446550628542658  0.14157897220403468  0.5986864295484227  1.0000
  C   C45       1.0  0.07639927096183687  0.8648665771894928  0.4274784695166496  1.0000
  C   C46       1.0  0.9236007288550235  0.13513342341016799  0.5725215305296829  1.0000
  C   C47       1.0  0.10523555214442383  0.7906603692956425  0.4859993886985019  1.0000
  C   C48       1.0  0.8947644473506001  0.20933962993405117  0.5140006113475356  1.0000
  C   C49       1.0  0.9429100600345482  0.7120574581840925  0.5157439330309009  1.0000
  C   C50       1.0  0.05708993946047575  0.2879425410456012  0.4842560670151366  1.0000
  C   C51       1.0  0.7536667543198728  0.7060364866219856  0.4879367675262416  1.0000
  C   C52       1.0  0.24633324549698749  0.29396351397767506  0.512063232520091  1.0000
  C   C53       1.0  0.7258934901224061  0.7772746961075896  0.43275667319251515  1.0000
  C   C54       1.0  0.2741065107633494  0.22272530312087532  0.5672433268555948  1.0000
  C   C55       1.0  0.2889377080212756  0.7956682680454101  0.5156408211791809  1.0000
  C   C56       1.0  0.7110622914737483  0.2043317311842835  0.4843591788668567  1.0000
  C   C57       1.0  0.30692148589199525  0.7246150161788882  0.5719667217483468  1.0000
  C   C58       1.0  0.6930785139248651  0.2753849844207726  0.42803327829798576  1.0000
  C   C59       1.0  0.13952412176772142  0.6483311418494269  0.5982274188570558  1.0000
  C   C60       1.0  0.8604758780491388  0.3516688587502339  0.4017725811892768  1.0000
  N   N1        1.0  0.7342261385309742  0.22789581234177184  0.05538768672645577  1.0000
  N   N2        1.0  0.26577386128588604  0.772104188257889  0.9446123133198768  1.0000
  N   N3        1.0  0.13444288399570853  0.1715029862312741  0.8996594156321074  1.0000
  N   N4        1.0  0.8655571158211519  0.8284970143683866  0.10034058441422522  1.0000
  N   N5        1.0  0.9645683198565338  0.6419272504488327  0.5711820121270802  1.0000
  N   N6        1.0  0.03543167963849004  0.3580727487808611  0.42881798791895726  1.0000
  N   N7        1.0  0.23346033351965684  0.940447147203947  0.4001644267687055  1.0000
  N   N8        1.0  0.7665396658236711  0.059552851967800476  0.5998355728271899  1.0000
  O   O1        1.0  0.697414742266667  0.5239958107910632  0.6387969630735028  1.0000
  O   O2        1.0  0.3025852575501933  0.4760041898085975  0.3612030369728298  1.0000
  O   O3        1.0  0.9221456543663905  0.42550018394810174  0.7007755137618159  1.0000
  O   O4        1.0  0.07785434512863339  0.5744998152815919  0.2992244862842216  1.0000
  O   O5        1.0  0.3562636578057124  0.03281389372910339  0.7999528711642536  1.0000
  O   O6        1.0  0.6437363416893115  0.9671861055005903  0.20004712888178378  1.0000
  O   O7        1.0  0.4543704583615929  0.30202401298197556  0.851895546234121  1.0000
  O   O8        1.0  0.545629541133431  0.6979759862477181  0.14810445381191642  1.0000
  O   O9        1.0  0.6399368144120405  0.7395589528652924  0.778841424475717  1.0000
  O   O10       1.0  0.3600631852531238  0.2604410476764222  0.22115857512047346  1.0000
  O   O11       1.0  0.35571996233631853  0.7659421728501131  0.7303508675080691  1.0000
  O   O12       1.0  0.6442800388712734  0.23405782774831874  0.26964913254033585  1.0000
