data_image0
_chemical_formula_structural       H76B4C88N8Br4
_chemical_formula_sum              "H76 B4 C88 N8 Br4"
_cell_length_a       12.777284719460738
_cell_length_b       5.225758383109544
_cell_length_c       27.41802934439246
_cell_angle_alpha    90.0
_cell_angle_beta     99.75213864220434
_cell_angle_gamma    90.0

_space_group_name_H-M_alt    "P 1"
_space_group_IT_number       1

loop_
  _space_group_symop_operation_xyz
  'x, y, z'

loop_
  _atom_site_type_symbol
  _atom_site_label
  _atom_site_symmetry_multiplicity
  _atom_site_fract_x
  _atom_site_fract_y
  _atom_site_fract_z
  _atom_site_occupancy
  H   H1        1.0  0.6098914409956858  0.03411693517561979  0.45436442034876884  1.0000
  H   H2        1.0  0.8901085588448261  0.534116934878099  0.04563557954881378  1.0000
  H   H3        1.0  0.390108558941917  0.9658830642293386  0.5456355794137753  1.0000
  H   H4        1.0  0.10989144122658111  0.4658830645268594  0.9543644205838012  1.0000
  H   H5        1.0  0.4735463879757274  0.0554425671375183  0.42920966016818296  1.0000
  H   H6        1.0  0.026453611668596062  0.5554425687535953  0.07079033989795724  1.0000
  H   H7        1.0  0.5264536120956798  0.94455743226744  0.5707903399644321  1.0000
  H   H8        1.0  0.9735463884028112  0.44455743256496083  0.9292096602346579  1.0000
  H   H9        1.0  0.5601770723809218  0.8806266732258777  0.39750369788910345  1.0000
  H   H10       1.0  0.9398229274595902  0.38062667352339863  0.10249630200847913  1.0000
  H   H11       1.0  0.43982292755668106  0.1193733261790805  0.6024963018734406  1.0000
  H   H12       1.0  0.06017707261181698  0.6193733258815597  0.8975036981241359  1.0000
  H   H13       1.0  0.30556096648742553  0.5597729928453679  0.5877366871285102  1.0000
  H   H14       1.0  0.19443903368107265  0.05977299314288871  0.9122633128690664  1.0000
  H   H15       1.0  0.6944390335839817  0.4402270065595904  0.4122633130041048  1.0000
  H   H16       1.0  0.8055609662565302  0.9402270062620696  0.08773668689347779  1.0000
  H   H17       1.0  0.21140536703030519  0.39462742607186685  0.6539451986974796  1.0000
  H   H18       1.0  0.28859463313819295  0.8946274257743461  0.846054801300097  1.0000
  H   H19       1.0  0.7885946329072976  0.6053725752466893  0.34605480106506453  1.0000
  H   H20       1.0  0.7114053669332143  0.10537257363061231  0.15394519883251817  1.0000
  H   H21       1.0  0.08879231912223909  0.023851540936692252  0.6371042510682379  1.0000
  H   H22       1.0  0.411207681046259  0.5238515406391714  0.8628957489293386  1.0000
  H   H23       1.0  0.911207680949168  0.9761484584682661  0.36289574906437727  1.0000
  H   H24       1.0  0.5887923188913438  0.47614845876578693  0.1371042508332054  1.0000
  H   H25       1.0  0.05872717424882772  0.8211540039565675  0.5533577198094335  1.0000
  H   H26       1.0  0.4412728259196704  0.3211540042540883  0.946642280188143  1.0000
  H   H27       1.0  0.9412728256887751  0.17884599544839086  0.4466422799531106  1.0000
  H   H28       1.0  0.5587271741517368  0.6788459970644679  0.05335771994447204  1.0000
  H   H29       1.0  0.15174783081575743  0.988257759235889  0.4877310829860825  1.0000
  H   H30       1.0  0.34825216961132627  0.48825775761981194  0.012268917080392355  1.0000
  H   H31       1.0  0.8482521692556497  0.01174224208266724  0.5122689171465326  1.0000
  H   H32       1.0  0.6517478304600809  0.5117422417851464  0.9877310830522228  1.0000
  H   H33       1.0  0.19527979507273333  0.0667682304501  0.4092513989098618  1.0000
  H   H34       1.0  0.30472020457159016  0.5667682301525792  0.09074860115627845  1.0000
  H   H35       1.0  0.8047202048648695  0.9332317708684561  0.5907486008526823  1.0000
  H   H36       1.0  0.695279795499817  0.4332317692523791  0.9092513989763367  1.0000
  H   H37       1.0  0.17882790549414138  0.3062369827836821  0.3301406024470294  1.0000
  H   H38       1.0  0.3211720940163778  0.8062369824861613  0.16985939724903984  1.0000
  H   H39       1.0  0.8211720944434615  0.6937630166212762  0.6698593973155147  1.0000
  H   H40       1.0  0.6788279059212251  0.19376301691879702  0.8301406025135043  1.0000
  H   H41       1.0  0.2882107870228831  0.17876319215587766  0.2668913848172619  1.0000
  H   H42       1.0  0.2117892134042006  0.6787631918583568  0.233108615249213  1.0000
  H   H43       1.0  0.711789213048524  0.8212368072490805  0.7331086153153532  1.0000
  H   H44       1.0  0.7882107865334024  0.3212368075466015  0.7668913845133312  1.0000
  H   H45       1.0  0.4086242596165623  0.8049357091586421  0.28234478698256216  1.0000
  H   H46       1.0  0.09137574002776128  0.304935709456163  0.21765521308357805  1.0000
  H   H47       1.0  0.591375740454845  0.19506429024631616  0.7176552131500529  1.0000
  H   H48       1.0  0.9086242600436459  0.6950642899487953  0.7823447870490371  1.0000
  H   H49       1.0  0.4193258417021875  0.5537361676255176  0.36050694239904385  1.0000
  H   H50       1.0  0.08067415859109187  0.05373616792303838  0.13949305729736006  1.0000
  H   H51       1.0  0.5806741582354153  0.4462638317794408  0.6394930573635004  1.0000
  H   H52       1.0  0.919325841346511  0.9462638333955177  0.860506942465184  1.0000
  H   H53       1.0  0.1997864142414589  0.35510768848363344  0.8360855491436193  1.0000
  H   H54       1.0  0.3002135859270393  0.8551076881861126  0.6639144508539574  1.0000
  H   H55       1.0  0.8002135858299484  0.6448923109213248  0.1639144509889959  1.0000
  H   H56       1.0  0.6997864141443679  0.14489231121884572  0.33608554927865775  1.0000
  H   H57       1.0  0.06517227277719034  0.00708999675908348  0.8182383972934515  1.0000
  H   H58       1.0  0.4348277273913077  0.5070899983751606  0.681761602704125  1.0000
  H   H59       1.0  0.9348277271604125  0.9929100026458748  0.18176160246909265  1.0000
  H   H60       1.0  0.5651722726800995  0.49291000294339565  0.31823839742849  1.0000
  H   H61       1.0  0.9391704518457815  0.006536634014769364  0.7380486449589246  1.0000
  H   H62       1.0  0.5608295486527094  0.5065366337172484  0.7619513552401652  1.0000
  H   H63       1.0  0.0608295482256257  0.9934633653901889  0.26195135517369045  1.0000
  H   H64       1.0  0.4391704514186978  0.49346336568770977  0.23804864489244978  1.0000
  H   H65       1.0  0.9494367102615563  0.3439263544615979  0.6759628367100279  1.0000
  H   H66       1.0  0.5505632901031303  0.8439263541640771  0.8240371631189911  1.0000
  H   H67       1.0  0.05056328980985096  0.6560736449433603  0.32403716342258726  1.0000
  H   H68       1.0  0.4494367098344726  0.15607364524088121  0.175962836643553  1.0000
  H   H69       1.0  0.085516361029169  0.6896819821691418  0.6935505891028458  1.0000
  H   H70       1.0  0.41448363913932923  0.18968198246666265  0.8064494108947309  1.0000
  H   H71       1.0  0.9144836389084339  0.3103180172358165  0.30644941065969833  1.0000
  H   H72       1.0  0.585516360932078  0.8103180169382955  0.19355058923788432  1.0000
  H   H73       1.0  0.21101947879645605  0.6920947688071067  0.7730714358372178  1.0000
  H   H74       1.0  0.28898052137204205  0.1920947691046276  0.7269285641603588  1.0000
  H   H75       1.0  0.7889805212749511  0.3079052305978515  0.2269285642953972  1.0000
  H   H76       1.0  0.7110194785655609  0.8079052303003307  0.27307143560218544  1.0000
  B   B1        1.0  0.23849398686686704  0.5307032026133889  0.45484458445556625  1.0000
  B   B2        1.0  0.2615060127774565  0.030703202910909756  0.04515541561057398  1.0000
  B   B3        1.0  0.7615060132045403  0.4692967987051673  0.5451554156770488  1.0000
  B   B4        1.0  0.7384939872939507  0.9692967984076465  0.954844584522041  1.0000
  C   C1        1.0  0.3985261530289126  0.4213383510260629  0.5018897900945417  1.0000
  C   C2        1.0  0.10147384713958553  0.921338350728542  0.9981102099030348  1.0000
  C   C3        1.0  0.6014738470424946  0.5786616483788953  0.4981102100380734  1.0000
  C   C4        1.0  0.8985261529318216  0.07866164867641626  0.0018897902295802842  1.0000
  C   C5        1.0  0.4187287849384303  0.601056265852649  0.46575069134012154  1.0000
  C   C6        1.0  0.08127121548865343  0.10105626615016998  0.03424930872635329  1.0000
  C   C7        1.0  0.581271215132977  0.398943735465907  0.5342493087924935  1.0000
  C   C8        1.0  0.9187287845827538  0.8989437351683862  0.9657506914062618  1.0000
  C   C9        1.0  0.5210069425622452  0.6965557270625339  0.4642268294830624  1.0000
  C   C10       1.0  0.9789930572782667  0.19655572736005472  0.035773170414520224  1.0000
  C   C11       1.0  0.47899305750916205  0.3034442723424244  0.5357731706495527  1.0000
  C   C12       1.0  0.021006942659336107  0.8034442720449037  0.9642268293480238  1.0000
  C   C13       1.0  0.5422497873828701  0.926917703592279  0.4343537517388212  1.0000
  C   C14       1.0  0.9577502124576418  0.42691770388979994  0.06564624815876147  1.0000
  C   C15       1.0  0.4577502125547328  0.07308229581267922  0.5656462480237229  1.0000
  C   C16       1.0  0.04224978761376541  0.5730822955151584  0.9343537519738537  1.0000
  C   C17       1.0  0.23562002758990938  0.2809653455746505  0.5341218225257968  1.0000
  C   C18       1.0  0.2643799725785887  0.7809653452771298  0.9658781774717797  1.0000
  C   C19       1.0  0.7643799723476935  0.7190346538303077  0.46587817723674735  1.0000
  C   C20       1.0  0.7356200274928184  0.21903465412782863  0.03412182266083529  1.0000
  C   C21       1.0  0.2522289012549202  0.3961216876560301  0.5809095530674939  1.0000
  C   C22       1.0  0.24777109891357793  0.8961216873585093  0.9190904469300826  1.0000
  C   C23       1.0  0.747771098816487  0.6038783117489281  0.4190904470651212  1.0000
  C   C24       1.0  0.7522289011578293  0.103878312046449  0.08090955320253244  1.0000
  C   C25       1.0  0.1995633843108589  0.3029379687964067  0.6177528774556311  1.0000
  C   C26       1.0  0.30043661585763926  0.8029379684988859  0.8822471225419456  1.0000
  C   C27       1.0  0.8004366157605484  0.6970620325221495  0.3822471226769841  1.0000
  C   C28       1.0  0.699563384213768  0.1970620309060724  0.11775287759066962  1.0000
  C   C29       1.0  0.1305155023977637  0.09452730374917624  0.6082347415007661  1.0000
  C   C30       1.0  0.3694844977707345  0.5945273034516554  0.8917652584968107  1.0000
  C   C31       1.0  0.8694844976736436  0.9054726975693799  0.39176525863184913  1.0000
  C   C32       1.0  0.6305155021668685  0.40547269786690077  0.10823474126573357  1.0000
  C   C33       1.0  0.11327229174707663  0.9817894980722552  0.5613819603771578  1.0000
  C   C34       1.0  0.38672770842142157  0.4817894983697762  0.9386180396204189  1.0000
  C   C35       1.0  0.8867277083243306  0.018210501332702956  0.4386180397554574  1.0000
  C   C36       1.0  0.6132722915161813  0.5182105010351821  0.06138196014212532  1.0000
  C   C37       1.0  0.16532765925327747  0.07549424238118857  0.5242984959703154  1.0000
  C   C38       1.0  0.33467234013246044  0.5754942420836677  0.9757015040269266  1.0000
  C   C39       1.0  0.8346723408181299  0.9245057570237697  0.4757015041622997  1.0000
  C   C40       1.0  0.6653276598051425  0.4245057573212906  0.02429849573561756  1.0000
  C   C41       1.0  0.3103386670917529  0.7996908685076493  0.39020387935567336  1.0000
  C   C42       1.0  0.18966133333533083  0.2996908668915722  0.10979612071080146  1.0000
  C   C43       1.0  0.68966133284585  0.20030913281090695  0.6097961204068707  1.0000
  C   C44       1.0  0.8103386667360765  0.700309132513386  0.8902038794218137  1.0000
  C   C45       1.0  0.2408872637519023  0.007808292501981266  0.38108838901255077  1.0000
  C   C46       1.0  0.25911273589242123  0.5078082922044604  0.11891161105358952  1.0000
  C   C47       1.0  0.7591127363195049  0.9921917069029771  0.6189116111200644  1.0000
  C   C48       1.0  0.7408872633962257  0.4921917072004979  0.8810883890786909  1.0000
  C   C49       1.0  0.23191624552608076  0.1417083159438672  0.336551423421266  1.0000
  C   C50       1.0  0.26808375490100295  0.6417083156463463  0.16344857664520884  1.0000
  C   C51       1.0  0.7680837545453265  0.8582916834610911  0.663448576711349  1.0000
  C   C52       1.0  0.7319162450365999  0.3582916837586119  0.8365514231173352  1.0000
  C   C53       1.0  0.29296175465882074  0.07026019442206259  0.3011063146045755  1.0000
  C   C54       1.0  0.2070382456344586  0.5702601960381396  0.19889368509182834  1.0000
  C   C55       1.0  0.7070382452787821  0.9297398049828958  0.6988936851579686  1.0000
  C   C56       1.0  0.7929617543031443  0.4297398052804166  0.8011063146707158  1.0000
  C   C57       1.0  0.3606840643614472  0.8594251801836232  0.3099080659730725  1.0000
  C   C58       1.0  0.13931593514907192  0.3594251785675463  0.19009193372299665  1.0000
  C   C59       1.0  0.6393159355761556  0.14057482113493283  0.6900919337894714  1.0000
  C   C60       1.0  0.860684064788531  0.6405748208374119  0.8099080660395475  1.0000
  C   C61       1.0  0.36820821761247385  0.7212171734119371  0.35381272812517595  1.0000
  C   C62       1.0  0.13179178203184969  0.22121717370945793  0.1461872719409643  1.0000
  C   C63       1.0  0.6317917824589335  0.27878282599302123  0.6461872720074392  1.0000
  C   C64       1.0  0.8682082180395576  0.7787828256955004  0.8538127281916509  1.0000
  C   C65       1.0  0.14505835921603208  0.351407132778168  0.800959768226874  1.0000
  C   C66       1.0  0.354941640952466  0.8514071324806471  0.6990402317707025  1.0000
  C   C67       1.0  0.8549416407215708  0.6485928666267903  0.19904023153567  1.0000
  C   C68       1.0  0.6450583591189412  0.14859286692431117  0.3009597683619127  1.0000
  C   C69       1.0  0.06908124825967929  0.15785519527007721  0.7910814078864179  1.0000
  C   C70       1.0  0.4309187519088189  0.6578551949725563  0.7089185921111588  1.0000
  C   C71       1.0  0.9309187518117279  0.842144804134881  0.20891859224619733  1.0000
  C   C72       1.0  0.5690812481625883  0.3421448044324019  0.2910814080214563  1.0000
  C   C73       1.0  0.9988762635993239  0.15616172049546773  0.7461278754954642  1.0000
  C   C74       1.0  0.501123736899167  0.6561617201979468  0.7538721247036256  1.0000
  C   C75       1.0  0.001123736472083248  0.8438382808230885  0.2538721246371508  1.0000
  C   C76       1.0  0.4988762631722402  0.34383827920701143  0.24612787542898942  1.0000
  C   C77       1.0  0.004392358358482245  0.3471347882947028  0.7110367525670253  1.0000
  C   C78       1.0  0.4956076418100158  0.847134787997182  0.7889632474305512  1.0000
  C   C79       1.0  0.9956076415791206  0.6528652130238534  0.28896324719551875  1.0000
  C   C80       1.0  0.5043923582613914  0.1528652133213742  0.2110367527020639  1.0000
  C   C81       1.0  0.08086684588935408  0.539964290947749  0.7208233426807777  1.0000
  C   C82       1.0  0.419133154279144  0.0399642912452698  0.7791766573167986  1.0000
  C   C83       1.0  0.9191331541820531  0.4600357084572093  0.2791766574518372  1.0000
  C   C84       1.0  0.5808668456584588  0.9600357081596885  0.22082334244574542  1.0000
  C   C85       1.0  0.15129666827693763  0.5418058781958516  0.765755114668973  1.0000
  C   C86       1.0  0.34870333189156055  0.04180587849337243  0.7342448853286037  1.0000
  C   C87       1.0  0.8487033317944696  0.45819412120910674  0.23424488546364222  1.0000
  C   C88       1.0  0.6512966681798467  0.9581941209115858  0.26575511480401137  1.0000
  N   N1        1.0  0.2877438378400467  0.3804125840232763  0.49614713034783414  1.0000
  N   N2        1.0  0.212256162587037  0.8804125837257555  0.003852869718640687  1.0000
  N   N3        1.0  0.7122561620975562  0.6195874153816819  0.5038528694147099  1.0000
  N   N4        1.0  0.7877438374843703  0.11958741567920285  0.9961471304139744  1.0000
  N   N5        1.0  0.3205957215227445  0.6670025390507868  0.43605016750306624  1.0000
  N   N6        1.0  0.17940427798777464  0.16700253743470977  0.063949832193003  1.0000
  N   N7        1.0  0.6794042784148584  0.3329974622677694  0.5639498322594778  1.0000
  N   N8        1.0  0.8205957219498282  0.8329974619702486  0.9360501675695411  1.0000
  Br  Br1       1.0  0.08875786468476884  0.5476599299443744  0.4299855092115922  1.0000
  Br  Br2       1.0  0.41124213574231483  0.047659930241895215  0.07001449085488268  1.0000
  Br  Br3       1.0  0.9112421353866382  0.45234006946058397  0.5700144909210229  1.0000
  Br  Br4       1.0  0.5887578643290923  0.9523400691630631  0.9299855092777324  1.0000
