data_image0
_chemical_formula_structural       H48C64N8O12F12I12
_chemical_formula_sum              "H48 C64 N8 O12 F12 I12"
_cell_length_a       13.989158804781411
_cell_length_b       18.890185003724106
_cell_length_c       7.432731108588007
_cell_angle_alpha    90.0
_cell_angle_beta     95.99600708860531
_cell_angle_gamma    90.0

_space_group_name_H-M_alt    "P 1"
_space_group_IT_number       1

loop_
  _space_group_symop_operation_xyz
  'x, y, z'

loop_
  _atom_site_type_symbol
  _atom_site_label
  _atom_site_symmetry_multiplicity
  _atom_site_fract_x
  _atom_site_fract_y
  _atom_site_fract_z
  _atom_site_occupancy
  H   H1        1.0  0.8391932139021455  0.7601541995046159  0.43245498712539365  1.0000
  H   H2        1.0  0.1608067857257625  0.7601541995046159  0.06754501293885652  1.0000
  H   H3        1.0  0.3391932139153434  0.2601541990738131  0.4324549876582634  1.0000
  H   H4        1.0  0.6608067857125646  0.2601541990738131  0.0675450124059868  1.0000
  H   H5        1.0  0.16080678602859613  0.23984580082761436  0.5675450127312212  1.0000
  H   H6        1.0  0.839193214204979  0.23984580082761436  0.9324549869177582  1.0000
  H   H7        1.0  0.6608067860153981  0.7398458007290418  0.5675450121983514  1.0000
  H   H8        1.0  0.339193214218177  0.7398458007290418  0.9324549874506279  1.0000
  H   H9        1.0  0.8392703056885341  0.7824004024887135  0.09898235200206978  1.0000
  H   H10       1.0  0.1607296946550065  0.7824004024887135  0.40101764807727264  1.0000
  H   H11       1.0  0.33927030570173183  0.282400402587286  0.09898235253493949  1.0000
  H   H12       1.0  0.6607296946418085  0.282400402587286  0.4010176475444029  1.0000
  H   H13       1.0  0.16072969424220762  0.2175995973141415  0.901017647854545  1.0000
  H   H14       1.0  0.8392703052757351  0.2175995973141415  0.5989823517793421  1.0000
  H   H15       1.0  0.6607296942961125  0.717599597215569  0.9010176486743925  1.0000
  H   H16       1.0  0.33927030528893304  0.717599597215569  0.5989823523122119  1.0000
  H   H17       1.0  0.8666769863293151  0.6790485719155822  0.8939504119626206  1.0000
  H   H18       1.0  0.13332301390426007  0.6790485719155822  0.6060495876863589  1.0000
  H   H19       1.0  0.3666769862754103  0.17904857201415467  0.8939504111427731  1.0000
  H   H20       1.0  0.6333230139581648  0.17904857201415467  0.6060495885062064  1.0000
  H   H21       1.0  0.13332301360142648  0.3209514278872728  0.10604958789399421  1.0000
  H   H22       1.0  0.8666769860264815  0.3209514278872728  0.393950412170256  1.0000
  H   H23       1.0  0.6333230136553314  0.8209514283180758  0.10604958871384174  1.0000
  H   H24       1.0  0.3666769859725767  0.8209514283180758  0.3939504113504085  1.0000
  H   H25       1.0  0.8965401449692546  0.5593368184545027  0.03638714559092654  1.0000
  H   H26       1.0  0.10345985465865343  0.5593368184545027  0.4636128544733236  1.0000
  H   H27       1.0  0.39654014498245244  0.05933681855307523  0.03638714612379625  1.0000
  H   H28       1.0  0.6034598546454555  0.05933681855307523  0.46361285394045393  1.0000
  H   H29       1.0  0.10345985496148702  0.44066318187772774  0.9636128542656882  1.0000
  H   H30       1.0  0.8965401452720881  0.44066318187772774  0.5363871453832911  1.0000
  H   H31       1.0  0.6034598549482891  0.9406631817791552  0.9636128537328186  1.0000
  H   H32       1.0  0.396540145285286  0.9406631817791552  0.5363871459161609  1.0000
  H   H33       1.0  0.8970216883476867  0.5466069748901018  0.3713061974647636  1.0000
  H   H34       1.0  0.10297831199585385  0.5466069748901018  0.12869380261457875  1.0000
  H   H35       1.0  0.3970216883608845  0.04660697498867432  0.37130619799763337  1.0000
  H   H36       1.0  0.602978311982656  0.04660697498867432  0.12869380208170905  1.0000
  H   H37       1.0  0.10297831158305502  0.4533930249127532  0.6286938023918511  1.0000
  H   H38       1.0  0.8970216879348878  0.4533930249127532  0.8713061972420362  1.0000
  H   H39       1.0  0.6029783115698572  0.9533930248141808  0.6286938018589815  1.0000
  H   H40       1.0  0.3970216879480856  0.9533930248141808  0.8713061977749057  1.0000
  H   H41       1.0  0.9525914330315918  0.5820879296752384  0.6854634296568105  1.0000
  H   H42       1.0  0.04740856720198341  0.5820879296752384  0.8145365699921687  1.0000
  H   H43       1.0  0.45259143304478966  0.0820879297738109  0.6854634301896803  1.0000
  H   H44       1.0  0.5474085672558882  0.0820879297738109  0.8145365708120162  1.0000
  H   H45       1.0  0.04740856689914983  0.41791207012761655  0.31453657019980424  1.0000
  H   H46       1.0  0.9525914327287581  0.41791207012761655  0.18546342986444597  1.0000
  H   H47       1.0  0.5474085669530546  0.9179120700290442  0.31453657101965177  1.0000
  H   H48       1.0  0.45259143267485336  0.9179120700290442  0.18546342904459842  1.0000
  C   C1        1.0  0.5000000001717703  0.44603497574740103  0.2500000000396712  1.0000
  C   C2        1.0  1.8496812494584664e-10  0.9460349756488285  0.2500000005725409  1.0000
  C   C3        1.0  0.49999999975897136  0.5539650245848294  0.7499999998169435  1.0000
  C   C4        1.0  0.9999999997721692  0.053965024683401905  0.7500000003498133  1.0000
  C   C5        1.0  0.582570586305198  0.4812451121155136  0.20754767251959058  1.0000
  C   C6        1.0  0.4174294140383425  0.4812451121155136  0.29245232755975176  1.0000
  C   C7        1.0  0.08257058631839584  0.981245112016941  0.2075476730524603  1.0000
  C   C8        1.0  0.9174294140251446  0.981245112016941  0.2924523270268821  1.0000
  C   C9        1.0  0.41742941362554364  0.5187548882167169  0.7924523273370242  1.0000
  C   C10       1.0  0.5825705866080315  0.5187548882167169  0.7075476723119553  1.0000
  C   C11       1.0  0.9174294136123458  0.018754888315289386  0.7924523268041544  1.0000
  C   C12       1.0  0.08257058662122943  0.018754888315289386  0.707547672844825  1.0000
  C   C13       1.0  0.5796445354635441  0.5550733795319023  0.20517287688232944  1.0000
  C   C14       1.0  0.4203554648799963  0.5550733795319023  0.294827123197013  1.0000
  C   C15       1.0  0.07964453547674198  0.05507337963047482  0.20517287741519916  1.0000
  C   C16       1.0  0.9203554648667984  0.05507337963047482  0.2948271226641432  1.0000
  C   C17       1.0  0.4203554644671975  0.44492662080032813  0.7948271229742853  1.0000
  C   C18       1.0  0.5796445350507452  0.44492662080032813  0.7051728766596017  1.0000
  C   C19       1.0  0.9203554644539996  0.9449266207017557  0.7948271224414156  1.0000
  C   C20       1.0  0.07964453506394314  0.9449266207017557  0.7051728771924715  1.0000
  C   C21       1.0  0.5000000001717703  0.5932794447376012  0.2500000000396712  1.0000
  C   C22       1.0  1.8496812494584664e-10  0.09327944483617379  0.2500000005725409  1.0000
  C   C23       1.0  0.49999999975897136  0.40672055506525373  0.7499999998169435  1.0000
  C   C24       1.0  0.9999999997721692  0.9067205554960567  0.7500000003498133  1.0000
  C   C25       1.0  0.850656133606505  0.7186937606658436  0.3358544523591732  1.0000
  C   C26       1.0  0.149343866021403  0.7186937606658436  0.16414554770507697  1.0000
  C   C27       1.0  0.3506561336197029  0.21869376023504064  0.33585445289204297  1.0000
  C   C28       1.0  0.6493438660082052  0.21869376023504064  0.16414554717220725  1.0000
  C   C29       1.0  0.1493438663242366  0.28130623966638685  0.6641455474974415  1.0000
  C   C30       1.0  0.8506561339093386  0.28130623966638685  0.8358544521515379  1.0000
  C   C31       1.0  0.6493438663110388  0.7813062395678143  0.6641455469645717  1.0000
  C   C32       1.0  0.3506561339225365  0.7813062395678143  0.8358544526844074  1.0000
  C   C33       1.0  0.8508774524462432  0.7290095108801259  0.1516870122371499  1.0000
  C   C34       1.0  0.1491225478972972  0.7290095108801259  0.3483129878421925  1.0000
  C   C35       1.0  0.35087745245944113  0.22900951097869843  0.15168701277001964  1.0000
  C   C36       1.0  0.6491225478840994  0.22900951097869843  0.34831298730932275  1.0000
  C   C37       1.0  0.14912254748449838  0.27099048892272903  0.8483129876194648  1.0000
  C   C38       1.0  0.8508774520334443  0.27099048892272903  0.6516870120144223  1.0000
  C   C39       1.0  0.6491225475384031  0.770990489353532  0.8483129884393124  1.0000
  C   C40       1.0  0.3508774520466423  0.770990489353532  0.6516870125472921  1.0000
  C   C41       1.0  0.8665134263708748  0.6719070320114783  0.039157795289991075  1.0000
  C   C42       1.0  0.13348657325703328  0.6719070320114783  0.46084220477425913  1.0000
  C   C43       1.0  0.3665134263840727  0.1719070321100508  0.03915779582286079  1.0000
  C   C44       1.0  0.6334865732438354  0.1719070321100508  0.46084220424138944  1.0000
  C   C45       1.0  0.13348657355986687  0.32809296832075213  0.9608422045666236  1.0000
  C   C46       1.0  0.8665134266737083  0.32809296832075213  0.5391577950823556  1.0000
  C   C47       1.0  0.6334865736137718  0.8280929682221796  0.9608422053864712  1.0000
  C   C48       1.0  0.36651342668690623  0.8280929682221796  0.5391577956152254  1.0000
  C   C49       1.0  0.8821862289801241  0.605323229907262  0.11735337101255006  1.0000
  C   C50       1.0  0.11781377064778384  0.605323229907262  0.38264662905170016  1.0000
  C   C51       1.0  0.3821862289262194  0.10532323000583452  0.11735337019270253  1.0000
  C   C52       1.0  0.6178137707016886  0.10532323000583452  0.3826466298715477  1.0000
  C   C53       1.0  0.11781377095061742  0.39467676989559297  0.8826466288440648  1.0000
  C   C54       1.0  0.8821862292829576  0.39467676989559297  0.6173533708049146  1.0000
  C   C55       1.0  0.6178137710045223  0.8946767697970205  0.8826466296639123  1.0000
  C   C56       1.0  0.38218622922905293  0.8946767697970205  0.6173533699850671  1.0000
  C   C57       1.0  0.8826880938503576  0.5967541894257586  0.3023340429340317  1.0000
  C   C58       1.0  0.11731190649318282  0.5967541894257586  0.19766595714531068  1.0000
  C   C59       1.0  0.3826880938635555  0.09675418952433114  0.3023340434669014  1.0000
  C   C60       1.0  0.617311906479985  0.09675418952433114  0.197665956612441  1.0000
  C   C61       1.0  0.117311906080384  0.40324581037709634  0.697665956922583  1.0000
  C   C62       1.0  0.8826880934375588  0.40324581037709634  0.802334042711304  1.0000
  C   C63       1.0  0.6173119060671861  0.9032458102785238  0.6976659563897133  1.0000
  C   C64       1.0  0.3826880934507567  0.9032458102785238  0.8023340432441738  1.0000
  N   N1        1.0  0.8676004132329155  0.6532300116471755  0.4093698588622674  1.0000
  N   N2        1.0  0.13239958711062488  0.6532300116471755  0.09063014121707501  1.0000
  N   N3        1.0  0.3676004132461135  0.15323001174574813  0.40936985939513704  1.0000
  N   N4        1.0  0.6323995870974269  0.15323001174574813  0.09063014068420532  1.0000
  N   N5        1.0  0.13239958741345847  0.34676998815567933  0.5906301410094397  1.0000
  N   N6        1.0  0.8676004128201167  0.34676998815567933  0.9093698586395397  1.0000
  N   N7        1.0  0.6323995874673632  0.8467699880571068  0.5906301418292872  1.0000
  N   N8        1.0  0.3676004128333146  0.8467699880571068  0.9093698591724094  1.0000
  O   O1        1.0  0.8697336522037972  0.6453134756275168  0.5870897823987961  1.0000
  O   O2        1.0  0.13026634802977807  0.6453134756275168  0.9129102172501834  1.0000
  O   O3        1.0  0.36973365214989234  0.14531347572608935  0.5870897815789484  1.0000
  O   O4        1.0  0.6302663480836828  0.14531347572608935  0.9129102180700307  1.0000
  O   O5        1.0  0.13026634772694448  0.35468652470471357  0.4129102174578187  1.0000
  O   O6        1.0  0.8697336519009636  0.35468652470471357  0.08708978260643144  1.0000
  O   O7        1.0  0.6302663477808491  0.854686524606141  0.4129102182776663  1.0000
  O   O8        1.0  0.36973365184705875  0.854686524606141  0.08708978178658393  1.0000
  O   O9        1.0  0.9999999997721692  0.5495500461193692  0.7500000003498133  1.0000
  O   O10       1.0  0.49999999975897136  0.04955004621794177  0.7499999998169435  1.0000
  O   O11       1.0  1.8496812494584664e-10  0.4504499536834857  0.2500000005725409  1.0000
  O   O12       1.0  0.5000000001717703  0.9504499535849131  0.2500000000396712  1.0000
  F   F1        1.0  0.5000000001717703  0.3741027204660411  0.2500000000396712  1.0000
  F   F2        1.0  1.8496812494584664e-10  0.8741027203674686  0.2500000005725409  1.0000
  F   F3        1.0  0.49999999975897136  0.6258972793368139  0.7499999998169435  1.0000
  F   F4        1.0  0.9999999997721692  0.12589727943538642  0.7500000003498133  1.0000
  F   F5        1.0  0.6569817369436703  0.5913342943860956  0.15884902620574887  1.0000
  F   F6        1.0  0.3430182633998702  0.5913342943860956  0.3411509738735935  1.0000
  F   F7        1.0  0.15698173695686815  0.09133429448466816  0.15884902673861853  1.0000
  F   F8        1.0  0.8430182633866723  0.09133429448466816  0.3411509733407238  1.0000
  F   F9        1.0  0.3430182629870714  0.40866570594613477  0.8411509736508659  1.0000
  F   F10       1.0  0.6569817372465038  0.40866570594613477  0.6588490259981133  1.0000
  F   F11       1.0  0.8430182630409763  0.9086657058475622  0.8411509744707134  1.0000
  F   F12       1.0  0.15698173725970171  0.9086657058475622  0.6588490265309832  1.0000
  I   I1        1.0  0.5000000001717703  0.7035694826376678  0.2500000000396712  1.0000
  I   I2        1.0  1.8496812494584664e-10  0.20356948273624031  0.2500000005725409  1.0000
  I   I3        1.0  0.49999999975897136  0.29643051716518715  0.7499999998169435  1.0000
  I   I4        1.0  0.9999999997721692  0.7964305170666146  0.7500000003498133  1.0000
  I   I5        1.0  0.7084479951774384  0.42643375797600264  0.15761996539683412  1.0000
  I   I6        1.0  0.2915520044504696  0.42643375797600264  0.34238003466741607  1.0000
  I   I7        1.0  0.20844799519063636  0.9264337578774301  0.15761996592970384  1.0000
  I   I8        1.0  0.7915520044372717  0.9264337578774301  0.3423800341345464  1.0000
  I   I9        1.0  0.2915520047533032  0.5735662423562278  0.8423800344597806  1.0000
  I   I10       1.0  0.708447995480272  0.5735662423562278  0.6576199651891987  1.0000
  I   I11       1.0  0.7915520047401052  0.07356624192542485  0.8423800339269109  1.0000
  I   I12       1.0  0.20844799549346996  0.07356624192542485  0.6576199657220684  1.0000
