data_image0
_chemical_formula_structural       H80C68N24O12S4
_chemical_formula_sum              "H80 C68 N24 O12 S4"
_cell_length_a       5.746136306360076
_cell_length_b       17.339694340033443
_cell_length_c       18.613060024482973
_cell_angle_alpha    90.0
_cell_angle_beta     90.04716472718839
_cell_angle_gamma    90.0

_space_group_name_H-M_alt    "P 1"
_space_group_IT_number       1

loop_
  _space_group_symop_operation_xyz
  'x, y, z'

loop_
  _atom_site_type_symbol
  _atom_site_label
  _atom_site_symmetry_multiplicity
  _atom_site_fract_x
  _atom_site_fract_y
  _atom_site_fract_z
  _atom_site_occupancy
  H   H1        1.0  0.3737406992882834  0.3826255993845393  0.8549427304052033  1.0000
  H   H2        1.0  0.12625930060007437  0.882625599383575  0.645057269265879  1.0000
  H   H3        1.0  0.6262593006981438  0.617374400613532  0.14505726913335693  1.0000
  H   H4        1.0  0.8737406994120315  0.11737440061449635  0.35494273080988625  1.0000
  H   H5        1.0  0.4810035962151343  0.3691013679072532  0.7665003324537896  1.0000
  H   H6        1.0  0.018996403673223552  0.8691013679062888  0.7334996672172925  1.0000
  H   H7        1.0  0.518996403771293  0.6308986320908181  0.23349966708477046  1.0000
  H   H8        1.0  0.9810035963388821  0.13089863209178243  0.2665003328584727  1.0000
  H   H9        1.0  0.056751970675561134  0.4164923070948476  0.817903444888154  1.0000
  H   H10       1.0  0.4432480292384752  0.9164923070938832  0.6820965553201335  1.0000
  H   H11       1.0  0.9432480293365446  0.5835076929032237  0.1820965551876113  1.0000
  H   H12       1.0  0.5567519707736306  0.08350769290418802  0.31790344475563187  1.0000
  H   H13       1.0  0.48836577686217275  0.4645522626891048  0.6342703912075431  1.0000
  H   H14       1.0  0.011634223026185048  0.9645522626881404  0.8657296084635392  1.0000
  H   H15       1.0  0.511634223149933  0.5354477373089666  0.3657296088682223  1.0000
  H   H16       1.0  0.9883657769602421  0.03544773730993083  0.13427039107502087  1.0000
  H   H17       1.0  0.39839508498636594  0.7328374578473389  0.6349437373393332  1.0000
  H   H18       1.0  0.1016049149276704  0.23283745784830331  0.8650562628689543  1.0000
  H   H19       1.0  0.6016049150257399  0.2671625421507324  0.36505626273643216  1.0000
  H   H20       1.0  0.8983950850844354  0.767162542149768  0.13494373720681097  1.0000
  H   H21       1.0  0.08366135149064167  0.5544604530774825  0.7499612959396648  1.0000
  H   H22       1.0  0.41633864839771617  0.05446045307844675  0.7500387037314176  1.0000
  H   H23       1.0  0.9163386485214641  0.4455395469205889  0.25003870413610063  1.0000
  H   H24       1.0  0.5836613516143896  0.9455395469196245  0.24996129634434774  1.0000
  H   H25       1.0  0.3453689900032039  0.5980587942693804  0.6149480771293203  1.0000
  H   H26       1.0  0.1546310099108324  0.09805879427034471  0.8850519230789672  1.0000
  H   H27       1.0  0.6546310100089018  0.40194120572869096  0.38505192294644497  1.0000
  H   H28       1.0  0.8453689901012732  0.9019412057277266  0.1149480769967982  1.0000
  H   H29       1.0  0.9358026082223182  0.686522065300549  0.734285216546388  1.0000
  H   H30       1.0  0.5641973909257849  0.18652206530151338  0.7657147835710025  1.0000
  H   H31       1.0  0.0641973917897875  0.3134779346975222  0.2657147835293773  1.0000
  H   H32       1.0  0.43580260908632085  0.8134779346965578  0.23428521650476283  1.0000
  H   H33       1.0  0.9081631282847767  0.42965090467596045  0.9241592985660299  1.0000
  H   H34       1.0  0.5918368726034373  0.929650904674996  0.5758407015438757  1.0000
  H   H35       1.0  0.09183687172732893  0.5703490953221108  0.07584070150973558  1.0000
  H   H36       1.0  0.40816312740866845  0.07034909532307519  0.42415929853188966  1.0000
  H   H37       1.0  0.6158231635018067  0.7710560686835161  0.6881739274043104  1.0000
  H   H38       1.0  0.8841768373864076  0.27105606868448034  0.8118260727055949  1.0000
  H   H39       1.0  0.3841768365102992  0.22894393131455532  0.31182607267145485  1.0000
  H   H40       1.0  0.11582316262569822  0.7289439313135909  0.18817392737017036  1.0000
  H   H41       1.0  0.7169396484626123  0.309574197487823  0.5965694507566306  1.0000
  H   H42       1.0  0.7830603523999232  0.8095741974868585  0.9034305488160694  1.0000
  H   H43       1.0  0.28306035152381487  0.6904258025102483  0.40343054878192947  1.0000
  H   H44       1.0  0.21693964758650397  0.19042580251121263  0.09656945072249054  1.0000
  H   H45       1.0  0.5801662877939985  0.06547310049052517  0.540425886862809  1.0000
  H   H46       1.0  0.9198337113541046  0.5654731004895608  0.9595741132545816  1.0000
  H   H47       1.0  0.4198337122181073  0.9345268995075462  0.4595741132129564  1.0000
  H   H48       1.0  0.08016628865800109  0.4345268995085105  0.040425886821183726  1.0000
  H   H49       1.0  0.32674872213976874  0.28759941624151963  0.6101420293611232  1.0000
  H   H50       1.0  0.17325127777426758  0.7875994162405553  0.8898579708471642  1.0000
  H   H51       1.0  0.673251277872337  0.7124005837565517  0.3898579707146421  1.0000
  H   H52       1.0  0.8267487222378382  0.21240058375751603  0.110142029228601  1.0000
  H   H53       1.0  0.953380110594391  0.08099974558128752  0.6667267659098018  1.0000
  H   H54       1.0  0.5466198885280334  0.5809997455803232  0.8332732336703835  1.0000
  H   H55       1.0  0.04661988939203607  0.9190002544167838  0.3332732336287582  1.0000
  H   H56       1.0  0.4533801114840723  0.41900025441774813  0.16672676640538187  1.0000
  H   H57       1.0  0.008950100390548924  0.22399882338367152  0.6754678109710331  1.0000
  H   H58       1.0  0.49104989952348743  0.7239988233827072  0.8245321892372545  1.0000
  H   H59       1.0  0.9910498996215568  0.7760011766143998  0.3245321891047322  1.0000
  H   H60       1.0  0.5089501004886183  0.2760011766153641  0.17546781083851096  1.0000
  H   H61       1.0  0.025920608452423437  0.2541736805489444  0.39993780790402966  1.0000
  H   H62       1.0  0.47407939068357396  0.7541736805479801  0.10006219213759555  1.0000
  H   H63       1.0  0.9740793915596824  0.7458263194491268  0.6000621921717356  1.0000
  H   H64       1.0  0.5259206093285318  0.24582631945009123  0.8999378079381699  1.0000
  H   H65       1.0  0.23641645733142252  0.002952515136428942  0.5969588483527719  1.0000
  H   H66       1.0  0.2635835425826138  0.5029525151354646  0.9030411518555157  1.0000
  H   H67       1.0  0.7635835426806833  0.9970474848616423  0.40304115172299343  1.0000
  H   H68       1.0  0.7364164574294919  0.49704748486260675  0.09695884822024974  1.0000
  H   H69       1.0  0.8705887568638949  0.43625087107420196  0.5033462629422779  1.0000
  H   H70       1.0  0.6294112440243191  0.9362508710732376  0.9966537371676276  1.0000
  H   H71       1.0  0.12941124314821079  0.5637491289238693  0.4966537371334875  1.0000
  H   H72       1.0  0.37058875598778657  0.06374912892483363  0.0033462629081377304  1.0000
  H   H73       1.0  0.1111263313579838  0.398475325718266  0.4541662962983543  1.0000
  H   H74       1.0  0.3888736695181245  0.8984753257173016  0.045833703735785825  1.0000
  H   H75       1.0  0.888873668654122  0.6015246742798053  0.5458337037774111  1.0000
  H   H76       1.0  0.6111263304683027  0.10152467428076963  0.9541662958027742  1.0000
  H   H77       1.0  0.10537336206590063  0.3927562843063856  0.549767916575441  1.0000
  H   H78       1.0  0.39462663782245716  0.8927562843054213  0.9502320830956413  1.0000
  H   H79       1.0  0.8946266379462052  0.6072437156916857  0.4502320835003244  1.0000
  H   H80       1.0  0.6053733621896485  0.10724371569265005  0.04976791698012399  1.0000
  C   C1        1.0  0.7090259443244854  0.4083807840632525  0.8443025088247723  1.0000
  C   C2        1.0  0.7909740565637287  0.9083807840622882  0.6556974912851331  1.0000
  C   C3        1.0  0.2909740556876203  0.5916192159348187  0.15569749125099303  1.0000
  C   C4        1.0  0.20902594344837708  0.0916192159357831  0.34430250879063223  1.0000
  C   C5        1.0  0.7969795202269124  0.5015181663221422  0.6915367932175697  1.0000
  C   C6        1.0  0.7030204806613016  0.0015181663231065483  0.8084632068923356  1.0000
  C   C7        1.0  0.2030204797851933  0.4984818336759291  0.3084632068581956  1.0000
  C   C8        1.0  0.296979519350804  0.9984818336749648  0.19153679318342964  1.0000
  C   C9        1.0  0.5886225995621406  0.5135394301294717  0.6538226295187044  1.0000
  C   C10       1.0  0.9113774013260736  0.013539430130436037  0.846177370591201  1.0000
  C   C11       1.0  0.4113774004499651  0.48646056986859965  0.34617737055706094  1.0000
  C   C12       1.0  0.08862259868603224  0.9864605698676352  0.1538226294845643  1.0000
  C   C13       1.0  0.9227345854750365  0.5639752517102985  0.7201112694602343  1.0000
  C   C14       1.0  0.5772654136473881  0.06397525171126289  0.7798887301199511  1.0000
  C   C15       1.0  0.07726541451139073  0.43602474828777277  0.2798887300783259  1.0000
  C   C16       1.0  0.42273458636471767  0.9360247482868083  0.2201112699558142  1.0000
  C   C17       1.0  0.5079737846738008  0.5879655269621284  0.6437534991990316  1.0000
  C   C18       1.0  0.9920262144486238  0.08796552696309283  0.8562465003811539  1.0000
  C   C19       1.0  0.4920262153126264  0.4120344730359428  0.35624650033952865  1.0000
  C   C20       1.0  0.007973785563481937  0.9120344730349785  0.1437534996946115  1.0000
  C   C21       1.0  0.6300374457473499  0.6518583960216567  0.6728082302696577  1.0000
  C   C22       1.0  0.8699625534007533  0.15185839602262108  0.8271917698477327  1.0000
  C   C23       1.0  0.3699625542647558  0.3481416039764145  0.32719176980610754  1.0000
  C   C24       1.0  0.1300374466113525  0.8481416039754502  0.17280823022803254  1.0000
  C   C25       1.0  0.8398431462873064  0.638241145603646  0.7111273994046775  1.0000
  C   C26       1.0  0.6601568546009076  0.1382411456046103  0.788872600705228  1.0000
  C   C27       1.0  0.16015685372479924  0.36175885439442534  0.2888726006710879  1.0000
  C   C28       1.0  0.33984314541119814  0.861758854393461  0.21112739937053734  1.0000
  C   C29       1.0  0.47055037907257424  0.18040512471882283  0.5688817637088115  1.0000
  C   C30       1.0  0.02944962258157303  0.6804051247178584  0.9311182364919908  1.0000
  C   C31       1.0  0.5294496209395314  0.8195948752792485  0.43111823636695373  1.0000
  C   C32       1.0  0.9705503774305326  0.3195948752802128  0.06888176358377461  1.0000
  C   C33       1.0  0.7583043174318931  0.19192482028455302  0.4655241857319767  1.0000
  C   C34       1.0  0.7416956809638495  0.6919248202835886  0.03447581475595681  1.0000
  C   C35       1.0  0.24169568258021254  0.8080751797135182  0.5344758143437885  1.0000
  C   C36       1.0  0.2583043190482562  0.3080751797144826  0.9655241853198085  1.0000
  C   C37       1.0  0.4500030683470943  0.09985483861745284  0.568055048969551  1.0000
  C   C38       1.0  0.04999693156694203  0.5998548386164885  0.9319449512387364  1.0000
  C   C39       1.0  0.5499969316650114  0.9001451613806185  0.4319449511062145  1.0000
  C   C40       1.0  0.9500030684451637  0.4001451613815828  0.06805504883702877  1.0000
  C   C41       1.0  0.8815445377365743  0.31279071208757764  0.49511785352163257  1.0000
  C   C42       1.0  0.6184554623736007  0.8127907120866132  0.00488214642161064  1.0000
  C   C43       1.0  0.1184554622755314  0.6872092879104936  0.5048821465541328  1.0000
  C   C44       1.0  0.381544537638505  0.18720928791145802  0.9951178536541546  1.0000
  C   C45       1.0  0.31155383137884957  0.2250607521373686  0.6080724495931433  1.0000
  C   C46       1.0  0.18844616850950824  0.7250607521364043  0.8919275500779389  1.0000
  C   C47       1.0  0.6884461686332563  0.7749392478607027  0.39192755048262196  1.0000
  C   C48       1.0  0.811553831476919  0.274939247861667  0.10807244946062121  1.0000
  C   C49       1.0  0.10051558452914273  0.10893200093147415  0.6406176226543094  1.0000
  C   C50       1.0  0.3994844153592151  0.6089320009305098  0.859382377016773  1.0000
  C   C51       1.0  0.8994844154829629  0.8910679990665971  0.35938237742145596  1.0000
  C   C52       1.0  0.6005155846272122  0.39106799906756146  0.1406176225217872  1.0000
  C   C53       1.0  0.1300197628048324  0.18875356138450175  0.6446306058455569  1.0000
  C   C54       1.0  0.3699802371092039  0.6887535613835374  0.8553693943627306  1.0000
  C   C55       1.0  0.8699802372072734  0.8112464386135696  0.35536939423020847  1.0000
  C   C56       1.0  0.6300197629029017  0.3112464386145339  0.1446306057130347  1.0000
  C   C57       1.0  0.9082941896391414  0.2546504380879117  0.44533975995065134  1.0000
  C   C58       1.0  0.5917058104710338  0.7546504380869474  0.054660239992591904  1.0000
  C   C59       1.0  0.09170581037296438  0.7453495619101596  0.5546602401251141  1.0000
  C   C60       1.0  0.40829418954107194  0.2453495619111239  0.9453397600831734  1.0000
  C   C61       1.0  0.26137796928587853  0.06499290517469562  0.602070992809602  1.0000
  C   C62       1.0  0.23862203060247925  0.5649929051737312  0.8979290068614804  1.0000
  C   C63       1.0  0.7386220307262272  0.9350070948233755  0.39792900726616337  1.0000
  C   C64       1.0  0.7613779694096264  0.43500709482434  0.10207099321428503  1.0000
  C   C65       1.0  0.998570966187843  0.3891460217047278  0.5008472950881616  1.0000
  C   C66       1.0  0.5014290346746926  0.8891460217037634  0.9991527044845387  1.0000
  C   C67       1.0  0.0014290338242627246  0.6108539782933435  0.4991527049876038  1.0000
  C   C68       1.0  0.49857096531173467  0.11085397829430785  0.0008472950540214736  1.0000
  N   N1        1.0  0.7361285082535834  0.42758953904291835  0.9100081443601314  1.0000
  N   N2        1.0  0.7638714908945197  0.927589539041954  0.5899918557572591  1.0000
  N   N3        1.0  0.2638714917585223  0.5724104609551529  0.08999185571563384  1.0000
  N   N4        1.0  0.23612850911758607  0.07241046095611732  0.41000814431850624  1.0000
  N   N5        1.0  0.49446364361525513  0.39494786446084446  0.8151841496271188  1.0000
  N   N6        1.0  0.005536356298781234  0.8949478644598801  0.6848158505811688  1.0000
  N   N7        1.0  0.5055363563968507  0.6050521355372269  0.18481585044864657  1.0000
  N   N8        1.0  0.9944636437133246  0.10505213553819119  0.3151841494945966  1.0000
  N   N9        1.0  0.9044550844281959  0.3963933351541849  0.7965024174940081  1.0000
  N   N10       1.0  0.5955449147199071  0.8963933351532205  0.7034975826233824  1.0000
  N   N11       1.0  0.09554491558390975  0.6036066648438864  0.20349758258175715  1.0000
  N   N12       1.0  0.4044550852921986  0.10360666484485072  0.2965024174523829  1.0000
  N   N13       1.0  0.5469521016659589  0.7242449580559203  0.6633921732178747  1.0000
  N   N14       1.0  0.9530478974821444  0.22424495805688466  0.8366078268995157  1.0000
  N   N15       1.0  0.45304789834614695  0.27575504194215095  0.3366078268578906  1.0000
  N   N16       1.0  0.046952102529961424  0.7757550419411866  0.16339217317624954  1.0000
  N   N17       1.0  0.6520671492430627  0.21573754454040653  0.5297818090880476  1.0000
  N   N18       1.0  0.8479328498793618  0.7157375445394422  0.9702181904921378  1.0000
  N   N19       1.0  0.34793285076904296  0.7842624554576647  0.4702181909877177  1.0000
  N   N20       1.0  0.1520671501070654  0.28426245545862916  0.029781809046422383  1.0000
  N   N21       1.0  0.7180381054660819  0.29086228690639493  0.5440076520754344  1.0000
  N   N22       1.0  0.7819618954221321  0.7908622869054306  0.955992348034471  1.0000
  N   N23       1.0  0.2819618945460238  0.7091377130916764  0.4559923480003308  1.0000
  N   N24       1.0  0.21803810458997366  0.2091377130926407  0.044007652041294386  1.0000
  O   O1        1.0  0.722708950490477  0.3538747240678387  0.6816931540609893  1.0000
  O   O2        1.0  0.7772910503977372  0.8538747240668744  0.8183068460489161  1.0000
  O   O3        1.0  0.2772910495216288  0.6461252759302325  0.31830684601477616  1.0000
  O   O4        1.0  0.22270894961436857  0.1461252759311969  0.1816931540268491  1.0000
  O   O5        1.0  0.13561671099787442  0.3994197766225816  0.6848016603968903  1.0000
  O   O6        1.0  0.36438328891616195  0.8994197766216172  0.8151983398113972  1.0000
  O   O7        1.0  0.8643832890142313  0.6005802233754897  0.31519833967887506  1.0000
  O   O8        1.0  0.6356167110959438  0.10058022337645406  0.1848016602643681  1.0000
  O   O9        1.0  0.7099461142310658  0.13029372696518032  0.4331917877675807  1.0000
  O   O10       1.0  0.7900538859047879  0.6302937269642159  0.0668082127128677  1.0000
  O   O11       1.0  0.29005388578103986  0.869706273032891  0.5668082123081847  1.0000
  O   O12       1.0  0.20994611410731798  0.36970627303385534  0.9331917873628977  1.0000
  S   S1        1.0  0.8968178363619171  0.4084285496111197  0.7080504262101317  1.0000
  S   S2        1.0  0.6031821627861857  0.9084285496101553  0.791949573907259  1.0000
  S   S3        1.0  0.10318216365018848  0.5915714503869517  0.29194957386563364  1.0000
  S   S4        1.0  0.3968178372259199  0.09157145038791598  0.2080504261685064  1.0000
