data_image0
_chemical_formula_structural       H46C48N4F12P2
_chemical_formula_sum              "H46 C48 N4 F12 P2"
_cell_length_a       8.580822684984224
_cell_length_b       11.625783013401673
_cell_length_c       12.512034532931388
_cell_angle_alpha    76.6512082462544
_cell_angle_beta     84.70328211396864
_cell_angle_gamma    65.88362116456685

_space_group_name_H-M_alt    "P 1"
_space_group_IT_number       1

loop_
  _space_group_symop_operation_xyz
  'x, y, z'

loop_
  _atom_site_type_symbol
  _atom_site_label
  _atom_site_symmetry_multiplicity
  _atom_site_fract_x
  _atom_site_fract_y
  _atom_site_fract_z
  _atom_site_occupancy
  H   H1        1.0  0.36005794902035154  0.3749160578228219  0.6163272208614148  1.0000
  H   H2        1.0  0.6399420505371816  0.6250839428385042  0.3836727788903774  1.0000
  H   H3        1.0  0.38153408102189057  0.40248266778977565  0.48065586316501646  1.0000
  H   H4        1.0  0.6184659190605483  0.5975173317189918  0.5193441374023949  1.0000
  H   H5        1.0  0.18427130590041207  0.4026541779215722  0.36278525434931147  1.0000
  H   H6        1.0  0.8157286941417407  0.5973458217991896  0.6372147453970363  1.0000
  H   H7        1.0  0.9126025222298939  0.37984565479951526  0.3455373477211479  1.0000
  H   H8        1.0  0.08739747781225865  0.6201543449212465  0.6544626520251998  1.0000
  H   H9        1.0  0.18876772940529732  0.24907636985559437  0.7121596776025018  1.0000
  H   H10       1.0  0.8112322706368552  0.7509236298651673  0.2878403221438459  1.0000
  H   H11       1.0  0.5594458527768154  0.20869655738944856  0.7274855706431449  1.0000
  H   H12       1.0  0.440554146821004  0.7913034430598832  0.272514429929711  1.0000
  H   H13       1.0  0.5021665162219429  0.19913240906872615  0.39083504484495185  1.0000
  H   H14       1.0  0.497833483860496  0.8008675904400415  0.6091649557224595  1.0000
  H   H15       1.0  0.7775644249684718  0.2939524203499009  0.5112209445645992  1.0000
  H   H16       1.0  0.2224355750736808  0.7060475793708608  0.4887790551817486  1.0000
  H   H17       1.0  0.9160088463878249  0.22860490857592733  0.6942810428000238  1.0000
  H   H18       1.0  0.08399115435031668  0.7713950920617667  0.3057189569280081  1.0000
  H   H19       1.0  0.9260997890818916  0.9012921343896972  0.5852326488802218  1.0000
  H   H20       1.0  0.07390021051592778  0.09870786605963446  0.41476735169263407  1.0000
  H   H21       1.0  0.818575695717457  0.004252251115191319  0.7462618408283151  1.0000
  H   H22       1.0  0.181424303840076  0.9957477495461348  0.253738158923477  1.0000
  H   H23       1.0  0.7672038033094671  0.9969826393162197  0.4090907039844548  1.0000
  H   H24       1.0  0.232796196248066  0.0030173613451062917  0.5909092957673375  1.0000
  H   H25       1.0  0.7892931510798374  0.28447623896995056  0.9198719221818101  1.0000
  H   H26       1.0  0.210706848962315  0.7155237607508113  0.08012807756453763  1.0000
  H   H27       1.0  0.9678611220774009  0.3787406214851867  0.8693384140210749  1.0000
  H   H28       1.0  0.03213887796475157  0.621259378235575  0.13066158572527287  1.0000
  H   H29       1.0  0.9540057005460552  0.18853086030993213  0.20690673804661888  1.0000
  H   H30       1.0  0.04599429953638384  0.8114691391988355  0.7930932625207925  1.0000
  H   H31       1.0  0.2161993296098072  0.41712915374169074  0.9104320008573129  1.0000
  H   H32       1.0  0.7838006704323455  0.5828708459790709  0.08956799888903487  1.0000
  H   H33       1.0  0.3425810220666483  0.3357356043474378  0.09845738372543489  1.0000
  H   H34       1.0  0.6574189779755042  0.6642643953733238  0.9015426160209129  1.0000
  H   H35       1.0  0.206536753302261  0.22340871974950605  0.24629562419002296  1.0000
  H   H36       1.0  0.7934632467801779  0.7765912797592615  0.7537043763773884  1.0000
  H   H37       1.0  0.7999198634756847  0.08910375782107177  0.8974703220987599  1.0000
  H   H38       1.0  0.20008013612213466  0.9108962426282602  0.10252967847409605  1.0000
  H   H39       1.0  0.698650155367901  0.19874072082349326  0.2108288126315323  1.0000
  H   H40       1.0  0.3013498442299183  0.8012592796258385  0.7891711879413236  1.0000
  H   H41       1.0  0.5937537586713484  0.8824404789532694  0.15972884057653455  1.0000
  H   H42       1.0  0.40624624088618455  0.11755952170805667  0.8402711591752576  1.0000
  H   H43       1.0  0.5958566397385668  0.024101327619511583  0.28103915681669417  1.0000
  H   H44       1.0  0.40414336034387205  0.9758986718892559  0.7189608437507171  1.0000
  H   H45       1.0  0.6956529073640206  0.9154658891133117  0.9679354934664272  1.0000
  H   H46       1.0  0.30434709223379874  0.08453411133602014  0.0320645071064287  1.0000
  C   C1        1.0  0.2004719976938783  0.32628765841277085  0.5378158561370586  1.0000
  C   C2        1.0  0.7995280018636548  0.673712342248555  0.4621841436147336  1.0000
  C   C3        1.0  0.5169590979368613  0.21326889085822626  0.5587048270214812  1.0000
  C   C4        1.0  0.48304090210529127  0.7867311088625354  0.44129517272486657  1.0000
  C   C5        1.0  0.12543991056033688  0.3640115204863963  0.43482948462451293  1.0000
  C   C6        1.0  0.8745600895221021  0.6359884790223714  0.5651705159428985  1.0000
  C   C7        1.0  0.9719635700674034  0.3521973328133365  0.42580675425054537  1.0000
  C   C8        1.0  0.028036429490129786  0.6478026678479895  0.5741932455012468  1.0000
  C   C9        1.0  0.1281168768126075  0.27762073393039505  0.6320056479015834  1.0000
  C   C10       1.0  0.871883123229545  0.7223792657903667  0.3679943518447642  1.0000
  C   C11       1.0  0.6030866221265682  0.16072367892636152  0.6587184773758212  1.0000
  C   C12       1.0  0.3969133779155844  0.8392763207944002  0.34128152237052645  1.0000
  C   C13       1.0  0.5715877995088936  0.15567135192741252  0.4684258687025792  1.0000
  C   C14       1.0  0.428412200533259  0.8443286477933493  0.5315741310437686  1.0000
  C   C15       1.0  0.8971148456156022  0.3031568071301551  0.5188788882120169  1.0000
  C   C16       1.0  0.10288515446683687  0.6968431923786124  0.4811211123553944  1.0000
  C   C17       1.0  0.9749558896757118  0.2661402417501615  0.6217160507501381  1.0000
  C   C18       1.0  0.025044110406727094  0.7338597577586059  0.3782839498172733  1.0000
  C   C19       1.0  0.8097664480000473  0.9890052076039287  0.5784079842423785  1.0000
  C   C20       1.0  0.19023355204210518  0.010994792116833048  0.42159201550396935  1.0000
  C   C21       1.0  0.7503991587756095  0.047239265746507206  0.6682491905223317  1.0000
  C   C22       1.0  0.24960084082221  0.9527607347028244  0.33175081005052415  1.0000
  C   C23       1.0  0.720167846561881  0.042828912703083886  0.47900666733972935  1.0000
  C   C24       1.0  0.2798321534802716  0.957171087017678  0.5209933324066183  1.0000
  C   C25       1.0  0.9451757782406152  0.2781757732601817  0.03432541432057703  1.0000
  C   C26       1.0  0.054824221841823534  0.7218242262485859  0.9656745862468343  1.0000
  C   C27       1.0  0.7589331729461691  0.15483124490006805  0.04941656073539385  1.0000
  C   C28       1.0  0.24106682713626967  0.8451687546086997  0.9505834398320174  1.0000
  C   C29       1.0  0.020535521601960257  0.3447968146208689  0.9524327910672226  1.0000
  C   C30       1.0  0.9794644784401924  0.6552031850998928  0.04756720867912518  1.0000
  C   C31       1.0  0.011783861510813261  0.23759432299923838  0.14144408791003235  1.0000
  C   C32       1.0  0.9882161380467198  0.7624056776620876  0.8585559118417599  1.0000
  C   C33       1.0  0.16059400001598084  0.36578817867147023  0.9754501573123971  1.0000
  C   C34       1.0  0.8394060000261718  0.6342118210492915  0.02454984243395049  1.0000
  C   C35       1.0  0.23082159545223627  0.3211947768956329  0.08110890087466979  1.0000
  C   C36       1.0  0.7691784045899162  0.6788052228251289  0.918891098871678  1.0000
  C   C37       1.0  0.15390546703632701  0.25855402239637926  0.16329533554556447  1.0000
  C   C38       1.0  0.8460945330058256  0.7414459773243827  0.8367046642007833  1.0000
  C   C39       1.0  0.7537885474805531  0.07490674034827283  0.9817164743437011  1.0000
  C   C40       1.0  0.2462114525615995  0.925093259372489  0.0182835254026466  1.0000
  C   C41       1.0  0.7038865420414343  0.13429698628511735  0.1587504732501244  1.0000
  C   C42       1.0  0.2961134575160988  0.8657030143762086  0.8412495265016677  1.0000
  C   C43       1.0  0.6414374288688066  0.9576064423037928  0.12985267457904254  1.0000
  C   C44       1.0  0.35856257117334583  0.042393557416969034  0.8701473251673052  1.0000
  C   C45       1.0  0.6448259937343693  0.0365350071283193  0.19745567641614253  1.0000
  C   C46       1.0  0.35517400634806945  0.9634649923804484  0.8025443241512689  1.0000
  C   C47       1.0  0.6966143328695429  0.977155647894798  0.021249005494390474  1.0000
  C   C48       1.0  0.30338566717260984  0.02284435182596373  0.9787509942519573  1.0000
  N   N1        1.0  0.3642877323904447  0.3367494090903329  0.5479462347303572  1.0000
  N   N2        1.0  0.6357122676517077  0.6632505906304289  0.4520537650159906  1.0000
  N   N3        1.0  0.8121035331860756  0.2544247404565466  0.0019757574908523612  1.0000
  N   N4        1.0  0.18789646637145746  0.7455752602047794  0.99802424226094  1.0000
  F   F1        1.0  0.6362819157519156  0.5750741397357656  0.2609915445007101  1.0000
  F   F2        1.0  0.36371808429023705  0.4249258599849962  0.7390084552456376  1.0000
  F   F3        1.0  0.4621157897978731  0.505851363992169  0.38745231391706814  1.0000
  F   F4        1.0  0.5378842102442795  0.4941486357285928  0.6125476858292797  1.0000
  F   F5        1.0  0.38144283622290887  0.42783182592042174  0.2561803255671377  1.0000
  F   F6        1.0  0.6185571638595302  0.5721681735883458  0.7438196750002737  1.0000
  F   F7        1.0  0.3505216359790453  0.6407161073828513  0.22115166502700762  1.0000
  F   F8        1.0  0.6494783635784878  0.35928389327847465  0.7788483347247845  1.0000
  F   F9        1.0  0.667205749193341  0.36210676957776605  0.2953246309524322  1.0000
  F   F10       1.0  0.332794250364192  0.6378932310835599  0.7046753687993601  1.0000
  F   F11       1.0  0.5569462953784287  0.4974505743704849  0.1281882924604857  1.0000
  F   F12       1.0  0.44305370466372396  0.5025494253502768  0.8718117072858621  1.0000
  P   P1        1.0  0.5092637649942644  0.4998281494873896  0.25419272900746315  1.0000
  P   P2        1.0  0.49073623508817454  0.5001718500213779  0.7458072715599483  1.0000
