data_image0
_chemical_formula_structural       H12C18O8S2Br4
_chemical_formula_sum              "H12 C18 O8 S2 Br4"
_cell_length_a       6.50423997590922
_cell_length_b       7.5322639050658955
_cell_length_c       12.386442918208077
_cell_angle_alpha    91.69827669629188
_cell_angle_beta     103.48356088009693
_cell_angle_gamma    114.12193216442512

_space_group_name_H-M_alt    "P 1"
_space_group_IT_number       1

loop_
  _space_group_symop_operation_xyz
  'x, y, z'

loop_
  _atom_site_type_symbol
  _atom_site_label
  _atom_site_symmetry_multiplicity
  _atom_site_fract_x
  _atom_site_fract_y
  _atom_site_fract_z
  _atom_site_occupancy
  H   H1        1.0  0.5551455400612842  0.6986308441418555  0.8533652002131816  1.0000
  H   H2        1.0  0.44485445953768654  0.3013691555010217  0.1466347998976673  1.0000
  H   H3        1.0  0.7039816851614924  0.677587457616984  0.9918515119807787  1.0000
  H   H4        1.0  0.2960183151330298  0.3224125434814876  0.008148488134016012  1.0000
  H   H5        1.0  0.677448027093591  0.5218593895970661  0.8706537725646222  1.0000
  H   H6        1.0  0.32255197250537965  0.4781406100458112  0.12934622754622674  1.0000
  H   H7        1.0  0.11198913480482516  0.6100984155260356  0.9228254485344347  1.0000
  H   H8        1.0  0.8880108654896968  0.389901585572436  0.0771745515803598  1.0000
  H   H9        1.0  0.15806568678921498  0.7665659931340225  0.049538173889889084  1.0000
  H   H10       1.0  0.8419343135053073  0.23343400796444927  0.9504618262249057  1.0000
  H   H11       1.0  0.33712286939173675  0.8576782409232094  0.9552603557768943  1.0000
  H   H12       1.0  0.6628771304364657  0.14232175997529373  0.044739643499343125  1.0000
  C   C1        1.0  0.7589352986757729  0.03739218239803374  0.3990298829358843  1.0000
  C   C2        1.0  0.24106470161874918  0.962607818700438  0.6009701171789104  1.0000
  C   C3        1.0  0.03921985988872269  0.1740182043788551  0.6229626683923704  1.0000
  C   C4        1.0  0.9607801404057995  0.8259817967196167  0.37703733172242443  1.0000
  C   C5        1.0  0.7402566700475243  0.18231256086518352  0.46438588457912733  1.0000
  C   C6        1.0  0.2597433295514467  0.8176874387776938  0.5356141155317217  1.0000
  C   C7        1.0  0.17160839968408206  0.22961292561309166  0.7421486708410571  1.0000
  C   C8        1.0  0.8283915999148886  0.7703870740297856  0.2578513292697919  1.0000
  C   C9        1.0  0.8827715535041061  0.25248165923962573  0.5765209772983456  1.0000
  C   C10       1.0  0.11722844679041618  0.747518341858846  0.4234790228164491  1.0000
  C   C11       1.0  0.6057514443786495  0.95613174242813  0.28397107390488524  1.0000
  C   C12       1.0  0.39424855522032126  0.04386825721474718  0.7160289262059637  1.0000
  C   C13       1.0  0.6966334627870705  0.6668854682414922  0.90229114288602  1.0000
  C   C14       1.0  0.30336653681190023  0.3331145314013851  0.097708857224829  1.0000
  C   C15       1.0  0.16215259223682063  0.7599149266484707  0.961457683066828  1.0000
  C   C16       1.0  0.8378474091268321  0.2400850742454754  0.03854231620976117  1.0000
  C   C17       1.0  0.07109486566617278  0.034639390748884065  0.5562377645563765  1.0000
  C   C18       1.0  0.9289051339327979  0.9653606088939932  0.4437622355544723  1.0000
  O   O1        1.0  0.9572158584757343  0.819574385707625  0.7622988013491432  1.0000
  O   O2        1.0  0.04278414112323638  0.18042561393525228  0.23770119876170576  1.0000
  O   O3        1.0  0.3666935896285034  0.19125061565045406  0.7723718564079077  1.0000
  O   O4        1.0  0.6333064101996992  0.8087493852480492  0.2276281428683298  1.0000
  O   O5        1.0  0.13363019522015088  0.3101993657496399  0.816638872742142  1.0000
  O   O6        1.0  0.8663698039125002  0.6898006336932689  0.18336112653014974  1.0000
  O   O7        1.0  0.4532233147398309  0.9992770839978821  0.23285495321851962  1.0000
  O   O8        1.0  0.5467766855546913  0.0007229171005896488  0.767145046896275  1.0000
  S   S1        1.0  0.9640894329977243  0.8524525601804172  0.8848285970754519  1.0000
  S   S2        1.0  0.03591056729679771  0.1475474409180545  0.11517140303934267  1.0000
  Br  Br1       1.0  0.8728264017345121  0.4655260042166653  0.657201696719979  1.0000
  Br  Br2       1.0  0.12717359739813924  0.5344739952262435  0.3427983025523128  1.0000
  Br  Br3       1.0  0.5246316319157118  0.2876735976952435  0.4095764142521569  1.0000
  Br  Br4       1.0  0.4753683699142605  0.7123264033986711  0.5904235858629895  1.0000
