data_image0
_chemical_formula_structural       H44C72N12F8I4
_chemical_formula_sum              "H44 C72 N12 F8 I4"
_cell_length_a       17.31471744086173
_cell_length_b       3.8463333871460246
_cell_length_c       23.87530073382955
_cell_angle_alpha    90.0
_cell_angle_beta     105.78617321703125
_cell_angle_gamma    90.0

_space_group_name_H-M_alt    "P 1"
_space_group_IT_number       1

loop_
  _space_group_symop_operation_xyz
  'x, y, z'

loop_
  _atom_site_type_symbol
  _atom_site_label
  _atom_site_symmetry_multiplicity
  _atom_site_fract_x
  _atom_site_fract_y
  _atom_site_fract_z
  _atom_site_occupancy
  H   H1        1.0  0.47656604943870673  0.295627309322688  0.28911553418797886  1.0000
  H   H2        1.0  0.5234339511797811  0.7956273109936268  0.2108844660382553  1.0000
  H   H3        1.0  0.5234339508990514  0.7043726888194324  0.7108844658522241  1.0000
  H   H4        1.0  0.47656604915797696  0.2043726897483722  0.7891155340019476  1.0000
  H   H5        1.0  0.611933341316903  0.16393809026208084  0.27552799699537617  1.0000
  H   H6        1.0  0.38806665855881384  0.6639380919330197  0.2244720027976609  1.0000
  H   H7        1.0  0.38806665844409  0.8360619104799183  0.7244720030468841  1.0000
  H   H8        1.0  0.6119333412021792  0.33606190880897935  0.7755279972445993  1.0000
  H   H9        1.0  0.7340605355682424  0.2673607736231729  0.3601021485017569  1.0000
  H   H10       1.0  0.26593946430747456  0.7673607752941117  0.1398978512912802  1.0000
  H   H11       1.0  0.26593946476951585  0.7326392271188261  0.639897851538446  1.0000
  H   H12       1.0  0.7340605354535183  0.23263922544788732  0.8601021487509799  1.0000
  H   H13       1.0  0.7144728017492773  0.5362233281422255  0.450559633501231  1.0000
  H   H14       1.0  0.28552719812643956  0.03622332647128659  0.04944036629180608  1.0000
  H   H15       1.0  0.28552719784570985  0.4637766725997736  0.5494403661057747  1.0000
  H   H16       1.0  0.7144728016345534  0.9637766716708338  0.950559633750454  1.0000
  H   H17       1.0  0.4984178638713655  0.8000423520966031  0.47002409436289194  1.0000
  H   H18       1.0  0.5015821361703571  0.30004235302554305  0.029975905865399582  1.0000
  H   H19       1.0  0.5015821358896274  0.1999576460455172  0.5299759056793684  1.0000
  H   H20       1.0  0.49841786416740097  0.6999576477164561  0.9700240941748033  1.0000
  H   H21       1.0  0.3639030005962563  0.9696808374604899  0.4834634060461578  1.0000
  H   H22       1.0  0.6360969992794604  0.46968083578955117  0.016536593746879314  1.0000
  H   H23       1.0  0.6360969991647366  0.03031916328150903  0.5165365939961025  1.0000
  H   H24       1.0  0.3639030004815324  0.5303191623525693  0.9834634062953808  1.0000
  H   H25       1.0  0.24029598471104874  0.8226992206590712  0.4037489651394698  1.0000
  H   H26       1.0  0.7597040153306739  0.3226992189881324  0.09625103508882168  1.0000
  H   H27       1.0  0.7597040156267093  0.17730078008292777  0.5962510349007331  1.0000
  H   H28       1.0  0.24029598443031908  0.677300779153988  0.9037489649534386  1.0000
  H   H29       1.0  0.30756680065243175  0.29754591056111984  0.24659030018407843  1.0000
  H   H30       1.0  0.6924331992232851  0.7975459096321801  0.25340969960895865  1.0000
  H   H31       1.0  0.692433199108561  0.7024540901808792  0.7534096998581817  1.0000
  H   H32       1.0  0.3075668005377079  0.20245409110981902  0.7465903004333017  1.0000
  H   H33       1.0  0.18681437721153457  0.16993280982462733  0.16377141636628964  1.0000
  H   H34       1.0  0.8131856226641823  0.6699328114955662  0.33622858342674744  1.0000
  H   H35       1.0  0.8131856231262236  0.830067188317493  0.8362285836739134  1.0000
  H   H36       1.0  0.1868143770968107  0.3300671892464329  0.6637714166155128  1.0000
  H   H37       1.0  0.04968122511355328  0.2936151956494782  0.17672334681704058  1.0000
  H   H38       1.0  0.9503187747621635  0.7936151973204171  0.3232766529759965  1.0000
  H   H39       1.0  0.9503187746474396  0.7063848024926422  0.8232766532252196  1.0000
  H   H40       1.0  0.04968122483282362  0.20638480342158202  0.6767233466310093  1.0000
  H   H41       1.0  0.04153251804223994  0.5138537019710936  0.2734417156901509  1.0000
  H   H42       1.0  0.9584674819994826  0.01385370030015472  0.22655828453814064  1.0000
  H   H43       1.0  0.9584674822955181  0.4861462987709055  0.7265582843500519  1.0000
  H   H44       1.0  0.04153251776151026  0.9861462978419657  0.7734417155041197  1.0000
  C   C1        1.0  0.04173774085463356  0.14357083341903124  0.4615884778314777  1.0000
  C   C2        1.0  0.9582622591870888  0.6435708350899702  0.038411522396813766  1.0000
  C   C3        1.0  0.9582622594831246  0.8564291673229678  0.5384115222087251  1.0000
  C   C4        1.0  0.04173774057390386  0.356429165652029  0.9615884776454464  1.0000
  C   C5        1.0  0.0828714838504715  0.9849711007009415  0.5137318138832491  1.0000
  C   C6        1.0  0.9171285163725628  0.4849711016298813  0.9862681864061769  1.0000
  C   C7        1.0  0.9171285164872867  0.015028897441178938  0.48626818615695383  1.0000
  C   C8        1.0  0.08287148338843021  0.5150288991121178  0.013731813636083282  1.0000
  C   C9        1.0  0.9582250653823918  0.15611581721093365  0.4489672921541641  1.0000
  C   C10       1.0  0.041774935070090134  0.6561158162819939  0.05103270763681565  1.0000
  C   C11       1.0  0.041774934955366286  0.8438841835310654  0.5510327078860388  1.0000
  C   C12       1.0  0.958225065101662  0.34388418186012654  0.9489672919681328  1.0000
  C   C13       1.0  0.5255825254919598  0.49794885861964605  0.375703776196974  1.0000
  C   C14       1.0  0.474417474383757  0.9979488576907063  0.12429622359606315  1.0000
  C   C15       1.0  0.4744174742690331  0.5020511421223529  0.6242962238452864  1.0000
  C   C16       1.0  0.5255825259540011  0.0020511430512927826  0.8757037764441398  1.0000
  C   C17       1.0  0.5311123845494765  0.3502320507374307  0.3232387969983794  1.0000
  C   C18       1.0  0.46888761549224595  0.8502320524083695  0.17676120322991212  1.0000
  C   C19       1.0  0.4688876152115163  0.6497679474046897  0.6767612030438809  1.0000
  C   C20       1.0  0.531112384845512  0.14976794833362952  0.8232387968102907  1.0000
  C   C21       1.0  0.6064628054908777  0.27234245567497695  0.3164525400277023  1.0000
  C   C22       1.0  0.39353719455084485  0.7723424547460371  0.1835474602005892  1.0000
  C   C23       1.0  0.3935371948468803  0.7276575450670221  0.6835474600125007  1.0000
  C   C24       1.0  0.606462805210148  0.22765754339608327  0.816452539841671  1.0000
  C   C25       1.0  0.674092553500595  0.3346169014628731  0.3627307897149947  1.0000
  C   C26       1.0  0.3259074465411277  0.8346169005339332  0.13726921051329685  1.0000
  C   C27       1.0  0.3259074462603979  0.665383099279126  0.6372692103272656  1.0000
  C   C28       1.0  0.6740925537966304  0.1653831002080658  0.862730789526906  1.0000
  C   C29       1.0  0.662983462262598  0.482297061455836  0.4134078777442586  1.0000
  C   C30       1.0  0.3370165377791247  0.9822970605268962  0.08659212248403292  1.0000
  C   C31       1.0  0.33701653749839505  0.5177029392861631  0.5865921222980016  1.0000
  C   C32       1.0  0.6629834625586334  0.01770294021510282  0.91340787755617  1.0000
  C   C33       1.0  0.4466198791849945  0.5877257149769212  0.3849864015306852  1.0000
  C   C34       1.0  0.553380120856728  0.08772571590586094  0.11501359869760629  1.0000
  C   C35       1.0  0.5533801205759984  0.41227428316519926  0.615013598511575  1.0000
  C   C36       1.0  0.44661987948103  0.9122742848361381  0.8849864013425965  1.0000
  C   C37       1.0  0.4427741150276493  0.7479926180124372  0.43690505971431826  1.0000
  C   C38       1.0  0.5572258848480675  0.24799261894137703  0.06309494007871884  1.0000
  C   C39       1.0  0.5572258851441029  0.25200738012968316  0.5630949398906302  1.0000
  C   C40       1.0  0.4427741149129255  0.752007381800622  0.9369050599635415  1.0000
  C   C41       1.0  0.36824680279463906  0.8364998600361448  0.444079875426322  1.0000
  C   C42       1.0  0.6317531970810776  0.33649985836520596  0.055920124366715056  1.0000
  C   C43       1.0  0.6317531969663538  0.16350014070585428  0.5559201246159382  1.0000
  C   C44       1.0  0.3682468032566804  0.6635001397769145  0.944079875673488  1.0000
  C   C45       1.0  0.2996519908556441  0.7544432808912497  0.40001543961161673  1.0000
  C   C46       1.0  0.7003480090200728  0.25444328182018955  0.09998456018142034  1.0000
  C   C47       1.0  0.7003480089053489  0.2455567198507493  0.5999845604306435  1.0000
  C   C48       1.0  0.2996519905749144  0.7455567189218095  0.9000154394255855  1.0000
  C   C49       1.0  0.3085025342558369  0.5851982403610991  0.35007822178677644  1.0000
  C   C50       1.0  0.6914974657858857  0.085198241290039  0.14992177844151502  1.0000
  C   C51       1.0  0.691497465505156  0.41480175778102124  0.6499217782554838  1.0000
  C   C52       1.0  0.3085025345518723  0.9148017594519601  0.8500782215986878  1.0000
  C   C53       1.0  0.23768892303461425  0.48700345275839335  0.30199574227002896  1.0000
  C   C54       1.0  0.7623110770071083  0.9870034544293322  0.19800425795826254  1.0000
  C   C55       1.0  0.7623110767263787  0.5129965453837271  0.6980042577722312  1.0000
  C   C56       1.0  0.2376889233306497  0.012996546312666835  0.8019957420819404  1.0000
  C   C57       1.0  0.2472803821055925  0.3478471118679463  0.249939991196536  1.0000
  C   C58       1.0  0.7527196185128953  0.8478471109390066  0.25006000902969816  1.0000
  C   C59       1.0  0.7527196182321656  0.6521528888740528  0.7500600088436669  1.0000
  C   C60       1.0  0.24728038182486275  0.1521528872031139  0.7499399910105047  1.0000
  C   C61       1.0  0.1800381756265542  0.2760769395468126  0.20437629245847738  1.0000
  C   C62       1.0  0.8199618242491625  0.7760769386178729  0.2956237073345597  1.0000
  C   C63       1.0  0.8199618247112038  0.7239230611951865  0.7956237075817255  1.0000
  C   C64       1.0  0.18003817534582447  0.2239230595242476  0.704376292272446  1.0000
  C   C65       1.0  0.10407321552093263  0.3429303227868957  0.2114059015299493  1.0000
  C   C66       1.0  0.8959267843547841  0.8429303218579559  0.2885940982630878  1.0000
  C   C67       1.0  0.8959267842400602  0.6570696779551033  0.7885940985123109  1.0000
  C   C68       1.0  0.10407321598297395  0.1570696762841645  0.7114059017771152  1.0000
  C   C69       1.0  0.09958395621943476  0.46964209759787545  0.2649552733055537  1.0000
  C   C70       1.0  0.9004160438222878  0.9696420992688143  0.23504472692273784  1.0000
  C   C71       1.0  0.9004160441183232  0.5303579005442449  0.7350447267346492  1.0000
  C   C72       1.0  0.09958395593870509  0.03035790147318476  0.7649552731195224  1.0000
  N   N1        1.0  0.5910238404944417  0.5659741657535506  0.42004026214321494  1.0000
  N   N2        1.0  0.40897615938127513  0.06597416408261184  0.07995973764982214  1.0000
  N   N3        1.0  0.40897615967731055  0.4340258349884484  0.5799597374617336  1.0000
  N   N4        1.0  0.5910238403797178  0.9340258340595086  0.920040262392438  1.0000
  N   N5        1.0  0.3806508001408859  0.5093519757146372  0.34229952130885416  1.0000
  N   N6        1.0  0.6193491999008367  0.009351974043698356  0.15770047891943734  1.0000
  N   N7        1.0  0.6193492001968721  0.4906480250273618  0.6577004787313486  1.0000
  N   N8        1.0  0.3806507998601562  0.9906480240984221  0.8422995211228229  1.0000
  N   N9        1.0  0.16399073861103663  0.5379441618125774  0.30948787356608054  1.0000
  N   N10       1.0  0.8360092612646801  0.03794416274151724  0.19051212622695657  1.0000
  N   N11       1.0  0.8360092617267214  0.4620558389294216  0.6905121264741223  1.0000
  N   N12       1.0  0.16399073849631282  0.9620558380004818  0.8094878738153037  1.0000
  F   F1        1.0  0.16416010213267454  0.9634009034119434  0.5290676799384143  1.0000
  F   F2        1.0  0.8358398975135946  0.4634009043408832  0.9709323203530692  1.0000
  F   F3        1.0  0.8358398976283185  0.03659909473017703  0.47093232010384595  1.0000
  F   F4        1.0  0.16416010224739838  0.5365990964011158  0.029067679689191148  1.0000
  F   F5        1.0  0.9147834030376288  0.31169663399603914  0.39934693477048766  1.0000
  F   F6        1.0  0.08521659700409386  0.8116966330670994  0.10065306545780388  1.0000
  F   F7        1.0  0.08521659730012927  0.6883033667459599  0.6006530652697152  1.0000
  F   F8        1.0  0.9147834027568991  0.18830336507502102  0.8993469345844562  1.0000
  I   I1        1.0  0.10216184952033232  0.3386422025591694  0.4029556719508392  1.0000
  I   I2        1.0  0.8978381505213903  0.8386422016302295  0.0970443282774523  1.0000
  I   I3        1.0  0.8978381502406606  0.6613577981828297  0.597044328091421  1.0000
  I   I4        1.0  0.10216184981636771  0.16135779911176945  0.9029556717627505  1.0000
