data_image0
_chemical_formula_structural       H112C48N16O32Cl8Br8
_chemical_formula_sum              "H112 C48 N16 O32 Cl8 Br8"
_cell_length_a       26.549729669600307
_cell_length_b       7.658527079041987
_cell_length_c       9.999406546434948
_cell_angle_alpha    90.0
_cell_angle_beta     90.0
_cell_angle_gamma    90.0

_space_group_name_H-M_alt    "P 1"
_space_group_IT_number       1

loop_
  _space_group_symop_operation_xyz
  'x, y, z'

loop_
  _atom_site_type_symbol
  _atom_site_label
  _atom_site_symmetry_multiplicity
  _atom_site_fract_x
  _atom_site_fract_y
  _atom_site_fract_z
  _atom_site_occupancy
  H   H1        1.0  0.5341831960812393  0.5520144338941003  0.7775481308710265  1.0000
  H   H2        1.0  0.4658168039338151  0.05201443383155479  0.22245186948549986  1.0000
  H   H3        1.0  0.034183196262037974  0.5520144338941003  0.7224518691637334  1.0000
  H   H4        1.0  0.9658168037530165  0.05201443383155479  0.277548131192793  1.0000
  H   H5        1.0  0.5453758625866258  0.8518507518048868  0.7110511275826599  1.0000
  H   H6        1.0  0.45462413742842867  0.35185075174234126  0.28894887277386655  1.0000
  H   H7        1.0  0.04537586239077275  0.8518507518048868  0.7889488724521  1.0000
  H   H8        1.0  0.9546241376242817  0.35185075174234126  0.21105112690436695  1.0000
  H   H9        1.0  0.523461447365058  0.8479955836119327  0.8794357284268269  1.0000
  H   H10       1.0  0.47653855264999645  0.3479955835493872  0.12056427192969946  1.0000
  H   H11       1.0  0.02346144716920492  0.8479955836119327  0.6205642716079329  1.0000
  H   H12       1.0  0.9765385528458495  0.3479955835493872  0.3794357287485934  1.0000
  H   H13       1.0  0.38765192407154714  0.8615226403071424  0.7178351091804662  1.0000
  H   H14       1.0  0.6123480759435074  0.3615226402445969  0.28216489117606014  1.0000
  H   H15       1.0  0.8876519238907484  0.8615226403071424  0.7821648908542935  1.0000
  H   H16       1.0  0.11234807612430596  0.3615226402445969  0.2178351085021734  1.0000
  H   H17       1.0  0.45665250422048914  0.029284547496573582  0.8012982133281369  1.0000
  H   H18       1.0  0.5433474957945653  0.529284547559119  0.19870178702838942  1.0000
  H   H19       1.0  0.9566525040396905  0.029284547496573582  0.698701786706623  1.0000
  H   H20       1.0  0.04334749597536394  0.529284547559119  0.3012982126498441  1.0000
  H   H21       1.0  0.4689198893898728  0.9767458419610022  0.6311072442844051  1.0000
  H   H22       1.0  0.5310801106251817  0.47674584189845665  0.3688927560721213  1.0000
  H   H23       1.0  0.9689198892090742  0.9767458419610022  0.8688927557503547  1.0000
  H   H24       1.0  0.031080110805980287  0.47674584189845665  0.1311072436061122  1.0000
  H   H25       1.0  0.4232685206157572  0.7400846404931705  0.5247666954666246  1.0000
  H   H26       1.0  0.5767314793992973  0.2400846417363591  0.4752333048899018  1.0000
  H   H27       1.0  0.9232685208116104  0.7400846404931705  0.9752333045681353  1.0000
  H   H28       1.0  0.07673147920344416  0.2400846417363591  0.02476669478833167  1.0000
  H   H29       1.0  0.39863891654303735  0.5719848992879671  0.6299897209645853  1.0000
  H   H30       1.0  0.6013610834720171  0.07198489922542162  0.3700102793919411  1.0000
  H   H31       1.0  0.8986389163622387  0.5719848992879671  0.8700102790701747  1.0000
  H   H32       1.0  0.10136108365281571  0.07198489922542162  0.1299897202862924  1.0000
  H   H33       1.0  0.48041635898856283  0.44894697302945324  0.6177271652388441  1.0000
  H   H34       1.0  0.5195836410264916  0.9489469730919987  0.38227283511768234  1.0000
  H   H35       1.0  0.9804163591844159  0.44894697302945324  0.8822728347959158  1.0000
  H   H36       1.0  0.01958364083063854  0.9489469730919987  0.1177271645605512  1.0000
  H   H37       1.0  0.5074756766893602  0.6475985941960536  0.5560239024367155  1.0000
  H   H38       1.0  0.4925243233256943  0.14759859413350818  0.4439760969197515  1.0000
  H   H39       1.0  0.007475676493507136  0.6475985941960536  0.9439760975980442  1.0000
  H   H40       1.0  0.9925243231448956  0.14759859413350818  0.056023902758482014  1.0000
  H   H41       1.0  0.38392201302415185  0.6317062915713009  0.8638288332300674  1.0000
  H   H42       1.0  0.616077986614251  0.1317062915087553  0.1361711661263995  1.0000
  H   H43       1.0  0.8839220132200049  0.6317062915713009  0.6361711668046924  1.0000
  H   H44       1.0  0.11607798679504955  0.1317062915087553  0.363828833551834  1.0000
  H   H45       1.0  0.4203399721533965  0.7999417520850961  0.9422174162284714  1.0000
  H   H46       1.0  0.5796600278616579  0.2999417520225506  0.05778258412805488  1.0000
  H   H47       1.0  0.9203399723492497  0.7999417520850961  0.5577825838062884  1.0000
  H   H48       1.0  0.07966002766580482  0.2999417520225506  0.44221741655023794  1.0000
  H   H49       1.0  0.4836483994299483  0.5905597111978567  0.9671909642925846  1.0000
  H   H50       1.0  0.5163516005851061  0.09055971113531107  0.03280903606394181  1.0000
  H   H51       1.0  0.9836483996258014  0.5905597111978567  0.5328090357421753  1.0000
  H   H52       1.0  0.016351600389253065  0.09055971113531107  0.4671909636142917  1.0000
  H   H53       1.0  0.454802987460391  0.44161603596798593  0.8526912202644554  1.0000
  H   H54       1.0  0.5451970125546635  0.9416160360305313  0.1473087800920709  1.0000
  H   H55       1.0  0.9548029872795923  0.44161603596798593  0.6473087797703044  1.0000
  H   H56       1.0  0.045197012735462054  0.9416160360305313  0.35269122058622193  1.0000
  H   H57       1.0  0.2835717208307583  0.36804735570022873  0.677685764503293  1.0000
  H   H58       1.0  0.7164282791842961  0.8680473557627743  0.32231423585323343  1.0000
  H   H59       1.0  0.7835717210266114  0.36804735570022873  0.8223142355314669  1.0000
  H   H60       1.0  0.21642827898844308  0.8680473557627743  0.17768576482505943  1.0000
  H   H61       1.0  0.2881930462275471  0.33412187142388394  0.852549504854304  1.0000
  H   H62       1.0  0.7118069537875074  0.8341218714864295  0.1474504945021631  1.0000
  H   H63       1.0  0.7881930460467484  0.33412187142388394  0.6474504951804559  1.0000
  H   H64       1.0  0.21180695396830598  0.8341218714864295  0.3525495051760704  1.0000
  H   H65       1.0  0.28693214148702423  0.056366326781206566  0.7412218140728056  1.0000
  H   H66       1.0  0.7130678585280302  0.5563663268437521  0.2587781862837208  1.0000
  H   H67       1.0  0.7869321413062256  0.056366326781206566  0.7587781859619542  1.0000
  H   H68       1.0  0.21306785870882886  0.5563663268437521  0.24122181439457205  1.0000
  H   H69       1.0  0.17864738658453558  0.31883652493469405  0.5478336703844745  1.0000
  H   H70       1.0  0.8213526134305189  0.8188365249972396  0.45216632997205186  1.0000
  H   H71       1.0  0.6786473864037369  0.31883652493469405  0.9521663296502854  1.0000
  H   H72       1.0  0.32135261361131745  0.8188365249972396  0.047833669706181664  1.0000
  H   H73       1.0  0.14443181598156468  0.129284840254669  0.5986528422663472  1.0000
  H   H74       1.0  0.8555681840334898  0.6292848403172145  0.4013471580901792  1.0000
  H   H75       1.0  0.6444318161774177  0.129284840254669  0.9013471577684127  1.0000
  H   H76       1.0  0.3555681838376367  0.6292848403172145  0.09865284158805429  1.0000
  H   H77       1.0  0.13524043011674305  0.34387580834008585  0.758306568973676  1.0000
  H   H78       1.0  0.8647595698983114  0.8438758084026313  0.2416934313828504  1.0000
  H   H79       1.0  0.6352404299359444  0.34387580834008585  0.7416934310610839  1.0000
  H   H80       1.0  0.36475957007911  0.8438758084026313  0.2583065682953831  1.0000
  H   H81       1.0  0.24353244648676448  0.08881131880584568  0.9520417492570176  1.0000
  H   H82       1.0  0.75646755352829  0.5888113188683912  0.04795825009944952  1.0000
  H   H83       1.0  0.7435324466826175  0.08881131880584568  0.5479582507777424  1.0000
  H   H84       1.0  0.2564675533324369  0.5888113188683912  0.452041749578784  1.0000
  H   H85       1.0  0.22153186089629004  0.916275091486365  0.8465887331101797  1.0000
  H   H86       1.0  0.7784681391187644  0.4162750914238194  0.15341126724634666  1.0000
  H   H87       1.0  0.7215318610921432  0.916275091486365  0.6534112669245802  1.0000
  H   H88       1.0  0.27846813892291133  0.4162750914238194  0.3465887334319462  1.0000
  H   H89       1.0  0.21820958074136265  0.9605976507065201  0.6094512040989798  1.0000
  H   H90       1.0  0.7817904192736918  0.46059765064397457  0.39054879625754657  1.0000
  H   H91       1.0  0.718209580560564  0.9605976507065201  0.8905487959357802  1.0000
  H   H92       1.0  0.2817904194544904  0.46059765064397457  0.10945120442074628  1.0000
  H   H93       1.0  0.2512207078189964  0.14009447364051264  0.53607813674814  1.0000
  H   H94       1.0  0.7487792921960581  0.6400944737030582  0.4639218636083864  1.0000
  H   H95       1.0  0.7512207076381978  0.14009447364051264  0.96392186328662  1.0000
  H   H96       1.0  0.24877929237685664  0.6400944737030582  0.03607813706990646  1.0000
  H   H97       1.0  0.20654857199088594  0.4574253017380751  0.888084015662516  1.0000
  H   H98       1.0  0.7934514280241685  0.9574253018006207  0.11191598469401029  1.0000
  H   H99       1.0  0.7065485718100873  0.4574253017380751  0.6119159843722438  1.0000
  H   H100      1.0  0.2934514282049671  0.9574253018006207  0.3880840149842232  1.0000
  H   H101      1.0  0.2081794865251902  0.5244659930747997  0.7184001307118705  1.0000
  H   H102      1.0  0.7918205134898644  0.024465993012254092  0.28159986964465583  1.0000
  H   H103      1.0  0.7081794863443915  0.5244659930747997  0.7815998693228894  1.0000
  H   H104      1.0  0.29182051367066286  0.024465993012254092  0.21840013003357764  1.0000
  H   H105      1.0  0.14100380066341964  0.049986499499050895  0.8299081081925472  1.0000
  H   H106      1.0  0.8589961993516348  0.5499864995615964  0.17009189116391976  1.0000
  H   H107      1.0  0.6410038008592727  0.049986499499050895  0.6700918918422126  1.0000
  H   H108      1.0  0.35899619915578174  0.5499864995615964  0.32990810851431374  1.0000
  H   H109      1.0  0.16249494942842285  0.20083305107179966  0.9546837700486832  1.0000
  H   H110      1.0  0.8375050505866316  0.7008330511343451  0.04531622930778374  1.0000
  H   H111      1.0  0.6624949492476243  0.20083305107179966  0.5453162299860767  1.0000
  H   H112      1.0  0.33750505039077855  0.7008330511343451  0.4546837703704497  1.0000
  C   C1        1.0  0.5131482964061796  0.8226446188642457  0.7753763799876962  1.0000
  C   C2        1.0  0.48685170360887486  0.32264461880170014  0.22462361936877093  1.0000
  C   C3        1.0  0.013148296210326546  0.8226446188642457  0.7246236200470637  1.0000
  C   C4        1.0  0.9868517038047279  0.32264461880170014  0.2753763803094626  1.0000
  C   C5        1.0  0.46566566039864776  0.9233470531626793  0.732153726923941  1.0000
  C   C6        1.0  0.534334339239755  0.42334705310013376  0.26784627343258544  1.0000
  C   C7        1.0  0.9656656605945009  0.9233470531626793  0.7678462731108189  1.0000
  C   C8        1.0  0.034334339420553625  0.42334705310013376  0.23215372624564806  1.0000
  C   C9        1.0  0.4283428355589432  0.6698018858009547  0.6191836716757377  1.0000
  C   C10       1.0  0.5716571644561113  0.16980188573840918  0.3808163286807886  1.0000
  C   C11       1.0  0.9283428357547963  0.6698018858009547  0.880816328359022  1.0000
  C   C12       1.0  0.0716571642602582  0.16980188573840918  0.11918367099744494  1.0000
  C   C13       1.0  0.48121950840911665  0.5911114883158828  0.6286984843356871  1.0000
  C   C14       1.0  0.5187804916059378  0.09111148825333734  0.37130151602083916  1.0000
  C   C15       1.0  0.981219508228318  0.5911114883158828  0.8713015156990727  1.0000
  C   C16       1.0  0.018780491786736388  0.09111148825333734  0.12869848365739434  1.0000
  C   C17       1.0  0.41971787052729553  0.7024485145090007  0.8620004977268452  1.0000
  C   C18       1.0  0.5802821294877589  0.2024485144464552  0.1379995026296811  1.0000
  C   C19       1.0  0.9197178707231486  0.7024485145090007  0.6379995023079146  1.0000
  C   C20       1.0  0.08028212929190583  0.2024485144464552  0.36200049804861173  1.0000
  C   C21       1.0  0.4648221565182432  0.578469415107713  0.8702240167545137  1.0000
  C   C22       1.0  0.5351778434968113  0.0784694150451675  0.12977598360201267  1.0000
  C   C23       1.0  0.9648221567140962  0.578469415107713  0.6297759832802462  1.0000
  C   C24       1.0  0.03517784330095819  0.0784694150451675  0.37022401707628017  1.0000
  C   C25       1.0  0.26339643932447154  0.32010865074941647  0.7657462194823876  1.0000
  C   C26       1.0  0.7366035606905829  0.8201086508119619  0.2342537798740793  1.0000
  C   C27       1.0  0.7633964391436731  0.32010865074941647  0.7342537805523722  1.0000
  C   C28       1.0  0.2366035608713815  0.8201086508119619  0.2657462198041542  1.0000
  C   C29       1.0  0.17758589329060312  0.20983557718268528  0.6185712353304845  1.0000
  C   C30       1.0  0.8224141067244514  0.7098355772452308  0.38142876402598247  1.0000
  C   C31       1.0  0.6775858934864563  0.20983557718268528  0.8814287647042752  1.0000
  C   C32       1.0  0.32241410652859825  0.7098355772452308  0.11857123565225104  1.0000
  C   C33       1.0  0.2232365803251972  0.05781317809943499  0.859646679038636  1.0000
  C   C34       1.0  0.7767634196898573  0.5578131781619805  0.1403533213178903  1.0000
  C   C35       1.0  0.7232365805210502  0.05781317809943499  0.6403533209961239  1.0000
  C   C36       1.0  0.27676341949400424  0.5578131781619805  0.35964667936040257  1.0000
  C   C37       1.0  0.22586673328227064  0.10061888820746903  0.6168331441828457  1.0000
  C   C38       1.0  0.7741332667327838  0.6006188882700145  0.3831668561736806  1.0000
  C   C39       1.0  0.7258667334781236  0.10061888820746903  0.883166855851914  1.0000
  C   C40       1.0  0.27413326653693076  0.6006188882700145  0.1168331435045529  1.0000
  C   C41       1.0  0.2123505854922279  0.41259779033062766  0.7854192219837347  1.0000
  C   C42       1.0  0.7876494145228267  0.9125977903931732  0.2145807783727917  1.0000
  C   C43       1.0  0.712350585688081  0.41259779033062766  0.7145807780510252  1.0000
  C   C44       1.0  0.2876494143269735  0.9125977903931732  0.28541922230550115  1.0000
  C   C45       1.0  0.1708998033676893  0.14173045009795535  0.8573517088428116  1.0000
  C   C46       1.0  0.8291001966473651  0.6417304501605009  0.1426482905136554  1.0000
  C   C47       1.0  0.6708998031868907  0.14173045009795535  0.6426482911919483  1.0000
  C   C48       1.0  0.3291001968281637  0.6417304501605009  0.3573517091645781  1.0000
  N   N1        1.0  0.5020822654651413  0.6308202817772546  0.7646564118073627  1.0000
  N   N2        1.0  0.4979177345499131  0.130820281714709  0.2353435875491043  1.0000
  N   N3        1.0  0.00208226526928823  0.6308202817772546  0.7353435882273972  1.0000
  N   N4        1.0  0.9979177347457663  0.130820281714709  0.2646564121291292  1.0000
  N   N5        1.0  0.42220793090917946  0.7981302523206093  0.7313049625537168  1.0000
  N   N6        1.0  0.577792069105875  0.29813025225806383  0.26869503780280957  1.0000
  N   N7        1.0  0.9222079311050326  0.7981302523206093  0.7686950374810432  1.0000
  N   N8        1.0  0.0777920689100219  0.29813025225806383  0.23130496287548324  1.0000
  N   N9        1.0  0.2535607900259779  0.1292530247374703  0.7457383581087216  1.0000
  N   N10       1.0  0.7464392099890765  0.6292530248000159  0.2542616412477454  1.0000
  N   N11       1.0  0.7535607898451793  0.1292530247374703  0.7542616419260383  1.0000
  N   N12       1.0  0.24643921016987513  0.6292530248000159  0.24573835843048805  1.0000
  N   N13       1.0  0.17103308043092252  0.2853010072889005  0.7555296451761433  1.0000
  N   N14       1.0  0.8289669195841319  0.7853010073514461  0.24447035418032378  1.0000
  N   N15       1.0  0.6710330806267756  0.2853010072889005  0.7444703548586167  1.0000
  N   N16       1.0  0.3289669193882789  0.7853010073514461  0.2555296454979097  1.0000
  O   O1        1.0  0.6726579687343708  0.7402098630052935  0.5263807202515007  1.0000
  O   O2        1.0  0.32734203128068373  0.24020986294274801  0.4736192801050255  1.0000
  O   O3        1.0  0.17265796891516938  0.7402098630052935  0.973619279783259  1.0000
  O   O4        1.0  0.827342031099885  0.24020986294274801  0.026380719573207936  1.0000
  O   O5        1.0  0.585419079720294  0.8131650963332525  0.5106845987595751  1.0000
  O   O6        1.0  0.41458092029476035  0.31316509627070693  0.48931540159695125  1.0000
  O   O7        1.0  0.08541907990109268  0.8131650963332525  0.9893154012751848  1.0000
  O   O8        1.0  0.9145809201139617  0.31316509627070693  0.010684598081282248  1.0000
  O   O9        1.0  0.6261904854359401  0.6633313282787896  0.33095442760849336  1.0000
  O   O10       1.0  0.3738095145791143  0.1633313282162441  0.669045572748033  1.0000
  O   O11       1.0  0.1261904852400871  0.6633313282787896  0.1690455720697401  1.0000
  O   O12       1.0  0.8738095147749674  0.1633313282162441  0.8309544272867269  1.0000
  O   O13       1.0  0.6100536797007557  0.5157471912332904  0.5374220515032402  1.0000
  O   O14       1.0  0.38994632031429866  0.015747191170744808  0.46257794785322676  1.0000
  O   O15       1.0  0.11005367950490276  0.5157471912332904  0.9625779485315196  1.0000
  O   O16       1.0  0.8899463205101518  0.015747191170744808  0.03742205182500671  1.0000
  O   O17       1.0  0.6384438693328203  0.8704985751429829  0.017371017889249496  1.0000
  O   O18       1.0  0.36155613068223424  0.3704985750804374  0.9826289824672768  1.0000
  O   O19       1.0  0.13844386913696718  0.8704985751429829  0.48262898178898406  1.0000
  O   O20       1.0  0.8615561308780872  0.3704985750804374  0.5173710175674829  1.0000
  O   O21       1.0  0.6281936199560213  0.673991513867663  0.8334318153082022  1.0000
  O   O22       1.0  0.37180638005903316  0.1739915138051175  0.16656818504832413  1.0000
  O   O23       1.0  0.12819362013681995  0.673991513867663  0.6665681847265577  1.0000
  O   O24       1.0  0.8718063798782345  0.1739915138051175  0.33343181562996876  1.0000
  O   O25       1.0  0.6592889923109908  0.5691986076447092  0.04331114531535939  1.0000
  O   O26       1.0  0.34071100770406376  0.06919860758216359  0.956688855041167  1.0000
  O   O27       1.0  0.15928899211513767  0.5691986076447092  0.45668885436287415  1.0000
  O   O28       1.0  0.8407110078999168  0.06919860758216359  0.5433111449935929  1.0000
  O   O29       1.0  0.5731249986105442  0.6564236318700674  0.021496617724442512  1.0000
  O   O30       1.0  0.4268750014045103  0.15642363311325602  0.9785033826320838  1.0000
  O   O31       1.0  0.0731249984146911  0.6564236318700674  0.478503381953791  1.0000
  O   O32       1.0  0.9268750016003634  0.15642363311325602  0.521496617402676  1.0000
  Cl  Cl1       1.0  0.623672448874666  0.6827666920848832  0.47628385423512726  1.0000
  Cl  Cl2       1.0  0.3763275511403885  0.18276669202233767  0.523716146121399  1.0000
  Cl  Cl3       1.0  0.12367244905546455  0.6827666920848832  0.023716146443165602  1.0000
  Cl  Cl4       1.0  0.8763275509595899  0.18276669202233767  0.9762838539133607  1.0000
  Cl  Cl5       1.0  0.624872597064366  0.6923922322493532  0.9785420849288854  1.0000
  Cl  Cl6       1.0  0.3751274029506883  0.19239223218680768  0.021457914427581565  1.0000
  Cl  Cl7       1.0  0.12487259686851307  0.6923922322493532  0.5214579151058745  1.0000
  Cl  Cl8       1.0  0.8751274031465414  0.19239223218680768  0.4785420852506519  1.0000
  Br  Br1       1.0  0.3019503893171161  0.7514645467206357  0.7056208663218694  1.0000
  Br  Br2       1.0  0.6980496106979385  0.2514645466580901  0.294379134034657  1.0000
  Br  Br3       1.0  0.8019503895129692  0.7514645467206357  0.7943791337128905  1.0000
  Br  Br4       1.0  0.19804961050208536  0.2514645466580901  0.2056208656435765  1.0000
  Br  Br5       1.0  0.5521815364013347  0.2561916370798332  0.7751766631354283  1.0000
  Br  Br6       1.0  0.44781846361371974  0.7561916371423788  0.22482333622103873  1.0000
  Br  Br7       1.0  0.052181536205481695  0.2561916370798332  0.7248233368993315  1.0000
  Br  Br8       1.0  0.9478184638095728  0.7561916371423788  0.27517666345719477  1.0000
