data_image0
_chemical_formula_structural       H112C108N16O8S4
_chemical_formula_sum              "H112 C108 N16 O8 S4"
_cell_length_a       14.983252721226311
_cell_length_b       6.864684230671377
_cell_length_c       22.94935791154911
_cell_angle_alpha    90.0
_cell_angle_beta     100.50843390120976
_cell_angle_gamma    90.0

_space_group_name_H-M_alt    "P 1"
_space_group_IT_number       1

loop_
  _space_group_symop_operation_xyz
  'x, y, z'

loop_
  _atom_site_type_symbol
  _atom_site_label
  _atom_site_symmetry_multiplicity
  _atom_site_fract_x
  _atom_site_fract_y
  _atom_site_fract_z
  _atom_site_occupancy
  H   H1        1.0  0.36941899050066485  0.7945214909712718  0.5227510767601239  1.0000
  H   H2        1.0  0.13058100971849876  0.29452149029180696  0.9772489235249848  1.0000
  H   H3        1.0  0.6305810097353464  0.20547850893092667  0.47724892320078055  1.0000
  H   H4        1.0  0.869418990643903  0.7054785096103915  0.022751076879091264  1.0000
  H   H5        1.0  0.2161442592798008  0.7180048789393402  0.6092912053483045  1.0000
  H   H6        1.0  0.2838557409393627  0.21800487825987544  0.8907087949368041  1.0000
  H   H7        1.0  0.7838557402892845  0.28199512096285817  0.3907087946143215  1.0000
  H   H8        1.0  0.7161442592966483  0.7819951216423231  0.10929120502410028  1.0000
  H   H9        1.0  0.48971799273787797  0.714014650244244  0.4811210788193223  1.0000
  H   H10       1.0  0.010282007443322931  0.21401465102151038  0.01887892138271576  1.0000
  H   H11       1.0  0.5102820074981332  0.2859853496579545  0.5188789211415822  1.0000
  H   H12       1.0  0.9897179927926882  0.7859853503374193  0.9811210785781889  1.0000
  H   H13       1.0  0.1098966127977626  0.6662133138719362  0.5329724629194321  1.0000
  H   H14       1.0  0.39010338729501043  0.16621331319247123  0.9670275369225052  1.0000
  H   H15       1.0  0.8901033874382486  0.3337866860302624  0.46702753704147243  1.0000
  H   H16       1.0  0.6098966122740749  0.8337866867097272  0.032972463040120845  1.0000
  H   H17       1.0  0.29410583585687117  0.5649012015255854  0.45237483897409214  1.0000
  H   H18       1.0  0.20589416419793907  0.06490120084612062  0.047625160784774294  1.0000
  H   H19       1.0  0.7058941637122141  0.435098798376613  0.5476251609885339  1.0000
  H   H20       1.0  0.7941058360380722  0.9350987990560778  0.9523748391761303  1.0000
  H   H21       1.0  0.5299912504941404  0.9536466310788696  0.6572795186972912  1.0000
  H   H22       1.0  0.9700087491297552  0.4536466303994047  0.8427204810242014  1.0000
  H   H23       1.0  0.47000874907494494  0.04635336882332888  0.3427204812653349  1.0000
  H   H24       1.0  0.029991251106255997  0.5463533695027938  0.15727951893670317  1.0000
  H   H25       1.0  0.004687980890502887  0.7222623682888747  0.2705924364616969  1.0000
  H   H26       1.0  0.495312019290698  0.22226236906614105  0.22940756374034116  1.0000
  H   H27       1.0  0.9953120193455083  0.2777376316133238  0.7294075634992074  1.0000
  H   H28       1.0  0.5046879809453132  0.7777376308360574  0.7705924362205634  1.0000
  H   H29       1.0  0.14731916098190703  0.6566398494864414  0.2413144538129269  1.0000
  H   H30       1.0  0.3526808391992938  0.15663985026370772  0.2586855463891112  1.0000
  H   H31       1.0  0.8526808387135689  0.3433601504157571  0.7586855465928707  1.0000
  H   H32       1.0  0.6473191610367174  0.8433601496384908  0.7413144535717934  1.0000
  H   H33       1.0  0.379166981722909  0.49590750653756716  0.37299767272429607  1.0000
  H   H34       1.0  0.12083301766497542  0.9959075072170321  0.12700232703629186  1.0000
  H   H35       1.0  0.6208330178461764  0.5040924933646314  0.6270023272383299  1.0000
  H   H36       1.0  0.8791669819041099  0.004092492685166437  0.8729976729263341  1.0000
  H   H37       1.0  0.9933725832992657  0.7719955240361727  0.5116479923052311  1.0000
  H   H38       1.0  0.5066274163246298  0.2719955233567078  0.9883520074162614  1.0000
  H   H39       1.0  0.006627416269819542  0.22800447732275705  0.48835200765739495  1.0000
  H   H40       1.0  0.49337258324445543  0.7280044765454907  0.011647992546364581  1.0000
  H   H41       1.0  0.6926471339966837  0.016123110150570656  0.6521624812935425  1.0000
  H   H42       1.0  0.8073528664205284  0.5161231093733043  0.8478375188694001  1.0000
  H   H43       1.0  0.30735286623932756  0.9838768897516278  0.34783751866736207  1.0000
  H   H44       1.0  0.19264713381548274  0.4838768905288942  0.15216248109150443  1.0000
  H   H45       1.0  0.7543906389286202  0.9239038471227267  0.5623076321780924  1.0000
  H   H46       1.0  0.7456093608216658  0.4239038464432618  0.9376923679865716  1.0000
  H   H47       1.0  0.245609360640465  0.07609615277947182  0.4376923677845335  1.0000
  H   H48       1.0  0.25439063941434525  0.5760961534589367  0.06230763197433296  1.0000
  H   H49       1.0  0.8585188846197181  0.789837619300039  0.29636969269417507  1.0000
  H   H50       1.0  0.6414811157595312  0.2898376200773054  0.2036303073856968  1.0000
  H   H51       1.0  0.141481115616293  0.21016238060215944  0.7036303072667295  1.0000
  H   H52       1.0  0.35851888447648  0.7101623812816243  0.7963696925752077  1.0000
  H   H53       1.0  0.30819058225335916  0.5496390748960911  0.2667497185654318  1.0000
  H   H54       1.0  0.1918094178014511  0.049639075673357444  0.23325028119343466  1.0000
  H   H55       1.0  0.691809417982652  0.4503609250061074  0.7332502813954729  1.0000
  H   H56       1.0  0.8081905817676343  0.9503609256855723  0.7667497187691913  1.0000
  H   H57       1.0  0.6520702852767037  0.6484731533768787  0.38657268670774764  1.0000
  H   H58       1.0  0.847929714309229  0.14847315269741382  0.113427312930674  1.0000
  H   H59       1.0  0.3479297142923815  0.35152684652531985  0.6134273132548782  1.0000
  H   H60       1.0  0.15207028592678207  0.8515268472047847  0.8865726870302304  1.0000
  H   H61       1.0  0.5580455803076061  0.7975305164859064  0.39803927558311175  1.0000
  H   H62       1.0  0.9419544194047172  0.2975305158064415  0.1019607244984815  1.0000
  H   H63       1.0  0.44195441992840506  0.20246948341629206  0.6019607243777927  1.0000
  H   H64       1.0  0.05804558016436793  0.7024694840957569  0.8980392754641445  1.0000
  H   H65       1.0  0.5717360244338858  0.5555818012661881  0.4278993312981599  1.0000
  H   H66       1.0  0.9282639759453636  0.055581800586723226  0.072100668781712  1.0000
  H   H67       1.0  0.4282639758021254  0.4444181986360104  0.5721006686627447  1.0000
  H   H68       1.0  0.07173602429064763  0.9444181993154753  0.9278993311791925  1.0000
  H   H69       1.0  0.8321623355419604  0.8406491815335266  0.4794339470669563  1.0000
  H   H70       1.0  0.667837664170363  0.34064918231079305  0.02056605301463694  1.0000
  H   H71       1.0  0.16783766402712483  0.1593508183686718  0.5205660528956695  1.0000
  H   H72       1.0  0.3321623360656481  0.6593508175914053  0.9794339469462676  1.0000
  H   H73       1.0  0.763549269305375  0.8578007861876689  0.37236321635721065  1.0000
  H   H74       1.0  0.7364507304069484  0.35780078550820404  0.1276367837243827  1.0000
  H   H75       1.0  0.23645073026371022  0.14219921371452957  0.6276367836054153  1.0000
  H   H76       1.0  0.26354926982906274  0.6421992143939944  0.8723632162365218  1.0000
  H   H77       1.0  0.9305025236199929  0.9309318979956919  0.6165262223596089  1.0000
  H   H78       1.0  0.5694974761302932  0.43093189731622694  0.8834737778050551  1.0000
  H   H79       1.0  0.06949747594909239  0.06906810190650668  0.38347377760301704  1.0000
  H   H80       1.0  0.43050252343879203  0.5690681025859715  0.11652622215757083  1.0000
  H   H81       1.0  0.8703490800568222  0.7371280629910503  0.6445701547344465  1.0000
  H   H82       1.0  0.629650919693464  0.23712806376831666  0.8554298454302176  1.0000
  H   H83       1.0  0.12965092030557965  0.2628719369111482  0.3554298456696297  1.0000
  H   H84       1.0  0.37034907987562127  0.7628719361338818  0.14457015453240835  1.0000
  H   H85       1.0  0.952057304433854  0.684473205483548  0.598946690546519  1.0000
  H   H86       1.0  0.5479426958569678  0.18447320480408302  0.9010533091732522  1.0000
  H   H87       1.0  0.04794269580215733  0.31552679441865056  0.4010533094143856  1.0000
  H   H88       1.0  0.45205730437904357  0.8155267950981154  0.09894669078765243  1.0000
  H   H89       1.0  0.9607926509339217  0.9444027521373624  0.7493618491917919  1.0000
  H   H90       1.0  0.5392073493568997  0.4444027529146287  0.7506381505279789  1.0000
  H   H91       1.0  0.03920734930208948  0.05559724776483613  0.25063815076911244  1.0000
  H   H92       1.0  0.4607926508791114  0.5555972469875697  0.24936184943292564  1.0000
  H   H93       1.0  0.03433387256998023  0.752061103835374  0.7791820449244947  1.0000
  H   H94       1.0  0.4656661275227928  0.2520611046126403  0.7208179549174424  1.0000
  H   H95       1.0  0.9656661276660309  0.2479388960668246  0.22081795503640972  1.0000
  H   H96       1.0  0.5343338727132184  0.7479388952895583  0.27918204504346217  1.0000
  H   H97       1.0  0.9205708163019359  0.6979655434976071  0.7459869203857342  1.0000
  H   H98       1.0  0.5794291841152762  0.19796554281814221  0.7540130797772083  1.0000
  H   H99       1.0  0.07942918393407522  0.3020344564045914  0.2540130795751703  1.0000
  H   H100      1.0  0.4205708161207351  0.8020344570840563  0.24598692018369617  1.0000
  H   H101      1.0  0.1537400968260071  0.5925233737374972  0.7615386220944049  1.0000
  H   H102      1.0  0.346259903266766  0.09252337451476365  0.7384613777475324  1.0000
  H   H103      1.0  0.8462599034100042  0.4074766261647012  0.2384613778664997  1.0000
  H   H104      1.0  0.6537400969692452  0.9074766253874348  0.26153862221337215  1.0000
  H   H105      1.0  0.16899290019086283  0.8501770240099173  0.7605193925282204  1.0000
  H   H106      1.0  0.33100710002830075  0.35017702333045253  0.7394806077568883  1.0000
  H   H107      1.0  0.8310071000451483  0.14982297589228113  0.2394806074326841  1.0000
  H   H108      1.0  0.6689929002077104  0.6498229765717459  0.2605193922040162  1.0000
  H   H109      1.0  0.23097877490620547  0.6972467908450153  0.7192605665829287  1.0000
  H   H110      1.0  0.26902122531295813  0.1972467901655504  0.78073943370218  1.0000
  H   H111      1.0  0.7690212254561962  0.3027532090571832  0.28073943382114736  1.0000
  H   H112      1.0  0.730978774923053  0.802753209736648  0.2192605662587245  1.0000
  C   C1        1.0  0.17061927996566828  0.6554318463618477  0.3942076929324237  1.0000
  C   C2        1.0  0.32938072008914193  0.15543184568238277  0.10579230682644275  1.0000
  C   C3        1.0  0.8293807202703428  0.34456815354035086  0.6057923070284807  1.0000
  C   C4        1.0  0.6706192801468692  0.8445681542198157  0.8942076931344617  1.0000
  C   C5        1.0  0.11773595326513632  0.693480617612387  0.4389048232212566  1.0000
  C   C6        1.0  0.382264046789674  0.19348061693292215  0.061095176537609874  1.0000
  C   C7        1.0  0.8822640463039491  0.3065193822898115  0.5610951767413693  1.0000
  C   C8        1.0  0.6177359534463372  0.8065193829692764  0.9389048234232945  1.0000
  C   C9        1.0  0.5004879277381938  0.8293075775523651  0.5695491340499831  1.0000
  C   C10       1.0  0.9995120725526276  0.3293075768729002  0.9304508656697879  1.0000
  C   C11       1.0  0.4995120724978173  0.17069242234983342  0.43045086591092147  1.0000
  C   C12       1.0  0.00048792768338360305  0.6706924230292982  0.06954913429111667  1.0000
  C   C13       1.0  0.535477090511965  0.7756599504183225  0.5189560820287763  1.0000
  C   C14       1.0  0.9645229092383211  0.27565995119558884  0.9810439181358878  1.0000
  C   C15       1.0  0.4645229090571202  0.22434004948387604  0.48104391793384965  1.0000
  C   C16       1.0  0.03547709112408066  0.7243400487066096  0.018956082268188335  1.0000
  C   C17       1.0  0.022631903718016648  0.7327437404222821  0.42243342601583794  1.0000
  C   C18       1.0  0.47736809633679367  0.23274374119954844  0.07756657374302847  1.0000
  C   C19       1.0  0.9773680965179945  0.26725625947991644  0.5775665739450665  1.0000
  C   C20       1.0  0.5226319032322917  0.7672562587026501  0.9224334262195976  1.0000
  C   C21       1.0  0.12828926517330985  0.6717729883911918  0.3326214393045916  1.0000
  C   C22       1.0  0.37171073434096513  0.17177298771172692  0.16737856089916794  1.0000
  C   C23       1.0  0.8717107343957755  0.3282270115110067  0.6673785606580344  1.0000
  C   C24       1.0  0.6282892652281202  0.8282270121904715  0.8326214390634581  1.0000
  C   C25       1.0  0.35381744423293127  0.77324864504086  0.6063734050898806  1.0000
  C   C26       1.0  0.14618255585984177  0.27324864436139507  0.8936265947520567  1.0000
  C   C27       1.0  0.6461825560030799  0.22675135631806978  0.39362659487102397  1.0000
  C   C28       1.0  0.8538174443761695  0.7267513555408034  0.10637340520884792  1.0000
  C   C29       1.0  0.1555418938073107  0.6940403039535058  0.5017422366076203  1.0000
  C   C30       1.0  0.344458106411853  0.1940403032740409  0.9982577636774885  1.0000
  C   C31       1.0  0.8444581064287006  0.3059596959486927  0.4982577633532841  1.0000
  C   C32       1.0  0.6555418938241583  0.8059596966281576  0.0017422362834161246  1.0000
  C   C33       1.0  0.2623895871825057  0.5895685269712949  0.4065792704387243  1.0000
  C   C34       1.0  0.23761041287230455  0.08956852629183  0.09342072932014214  1.0000
  C   C35       1.0  0.7376104130535054  0.4104314729309036  0.5934207295221802  1.0000
  C   C36       1.0  0.7623895873637067  0.9104314736103686  0.9065792706407624  1.0000
  C   C37       1.0  0.9816030640531669  0.7409896477499762  0.36041243802586553  1.0000
  C   C38       1.0  0.5183969363260824  0.2409896470705114  0.1395875620540063  1.0000
  C   C39       1.0  0.018396936182844204  0.25901035215222223  0.6395875619350389  1.0000
  C   C40       1.0  0.4816030639099288  0.759010352831687  0.8604124379068983  1.0000
  C   C41       1.0  0.5574513848312169  0.9132475099130477  0.6183012640838143  1.0000
  C   C42       1.0  0.9425486149190693  0.4132475092335828  0.8816987360808497  1.0000
  C   C43       1.0  0.44254861473786833  0.0867524899891508  0.38169873587881165  1.0000
  C   C44       1.0  0.05745138465001607  0.5867524906686157  0.11830126388177623  1.0000
  C   C45       1.0  0.0355830500081804  0.7133694275579316  0.3174450325156156  1.0000
  C   C46       1.0  0.4644169501730204  0.21336942687846674  0.18255496768642243  1.0000
  C   C47       1.0  0.9644169502278307  0.28663057234426687  0.6825549674452889  1.0000
  C   C48       1.0  0.5355830493960648  0.7866305730237317  0.8174450322762037  1.0000
  C   C49       1.0  0.6267266322024182  0.8090226313959443  0.5167989048080717  1.0000
  C   C50       1.0  0.8732733675478678  0.3090226321732106  0.9832010953565923  1.0000
  C   C51       1.0  0.373273367366667  0.19097736850625427  0.4832010951545542  1.0000
  C   C52       1.0  0.12672663268814324  0.6909773677289879  0.016798904604312215  1.0000
  C   C53       1.0  0.1804709059079689  0.6376427222162121  0.28743745963654627  1.0000
  C   C54       1.0  0.3195290936063061  0.13764272299347846  0.21256254056721327  1.0000
  C   C55       1.0  0.8195290936611165  0.3623572776859864  0.7125625403260798  1.0000
  C   C56       1.0  0.6804709059627793  0.8623572769087201  0.7874374593954128  1.0000
  C   C57       1.0  0.30992520053284733  0.5511588476415564  0.36190504934233364  1.0000
  C   C58       1.0  0.19007479898142765  0.05115884696209153  0.13809495086142584  1.0000
  C   C59       1.0  0.6900747990362379  0.4488411522606421  0.6380949506202923  1.0000
  C   C60       1.0  0.8099252005876576  0.948841152940107  0.8619050491012001  1.0000
  C   C61       1.0  0.9652901855787808  0.7712582971179426  0.46446487206500664  1.0000
  C   C62       1.0  0.5347098140071522  0.27125829789520906  0.035535127573415135  1.0000
  C   C63       1.0  0.03470981399030455  0.22874170278425585  0.5355351278976194  1.0000
  C   C64       1.0  0.4652901855619332  0.7287417034637207  0.9644648723892109  1.0000
  C   C65       1.0  0.6485367848077557  0.9461973212079917  0.6150003766173692  1.0000
  C   C66       1.0  0.8514632149425304  0.44619732198525813  0.8849996235472948  1.0000
  C   C67       1.0  0.3514632154282555  0.05380267869420676  0.3849996233435354  1.0000
  C   C68       1.0  0.14853678462655476  0.5538026779169404  0.1150003764153311  1.0000
  C   C69       1.0  0.6838014428329093  0.8959802437115829  0.5650960858659325  1.0000
  C   C70       1.0  0.8161985569173766  0.3959802444888493  0.9349039142987314  1.0000
  C   C71       1.0  0.3161985567361759  0.10401975619061557  0.43490391409669343  1.0000
  C   C72       1.0  0.1838014426517085  0.6040197554133493  0.06509608566389445  1.0000
  C   C73       1.0  0.8872916564296546  0.7840670698226124  0.3435797186265181  1.0000
  C   C74       1.0  0.612708343282669  0.28406707059987873  0.1564202814550752  1.0000
  C   C75       1.0  0.11270834393274734  0.21593293007958617  0.6564202817775581  1.0000
  C   C76       1.0  0.3872916562864163  0.7159329293023198  0.8435797185075508  1.0000
  C   C77       1.0  0.26945141996428196  0.5791037805115768  0.30160592518257745  1.0000
  C   C78       1.0  0.23054858009052828  0.07910378128884328  0.19839407457628905  1.0000
  C   C79       1.0  0.7305485802717291  0.4208962193906216  0.6983940747783272  1.0000
  C   C80       1.0  0.7694514201454828  0.9208962186133551  0.8016059253846155  1.0000
  C   C81       1.0  0.6076024824744901  0.687042065085452  0.4176328245396199  1.0000
  C   C82       1.0  0.8923975172378332  0.18704206440598714  0.08236717554197331  1.0000
  C   C83       1.0  0.392397517094595  0.3129579348167465  0.5823671754230059  1.0000
  C   C84       1.0  0.10760248299817789  0.8129579354962113  0.9176328244189311  1.0000
  C   C85       1.0  0.8745685263631457  0.812292605548536  0.4465830921079281  1.0000
  C   C86       1.0  0.6254314733491777  0.3122926048690711  0.05341690797366513  1.0000
  C   C87       1.0  0.1254314733323301  0.1877073958103937  0.5534169082978694  1.0000
  C   C88       1.0  0.37456852688683345  0.6877073950331273  0.9465830919872393  1.0000
  C   C89       1.0  0.834954388997316  0.8199130114175011  0.38554497367149787  1.0000
  C   C90       1.0  0.6650456112555427  0.31991301073803624  0.11445502596520248  1.0000
  C   C91       1.0  0.16504561123869524  0.1800869884846974  0.6144550262894067  1.0000
  C   C92       1.0  0.3349543889804684  0.6800869891641622  0.8855449739957021  1.0000
  C   C93       1.0  0.9356043423463906  0.7807251957860034  0.633481362242839  1.0000
  C   C94       1.0  0.5643956580708215  0.2807251951065384  0.8665186379201036  1.0000
  C   C95       1.0  0.0643956578896206  0.21927480411619518  0.36651863771806553  1.0000
  C   C96       1.0  0.4356043421651897  0.7192748047956601  0.13348136204080097  1.0000
  C   C97       1.0  0.09279610298010374  0.7306259736741707  0.6793377168163384  1.0000
  C   C98       1.0  0.40720389644574334  0.2306259744514371  0.8206622830273201  1.0000
  C   C99       1.0  0.9072038965889815  0.26937402622802775  0.3206622831462876  1.0000
  C   C100      1.0  0.592796103123342  0.7693740254507614  0.17933771693530579  1.0000
  C   C101      1.0  0.9791680379864457  0.7915171080591122  0.7431552085044797  1.0000
  C   C102      1.0  0.5208319617638404  0.29151710883637866  0.7568447916601843  1.0000
  C   C103      1.0  0.02083196224956542  0.2084828918430862  0.2568447914564248  1.0000
  C   C104      1.0  0.47916803780524486  0.7084828910658197  0.24315520830244164  1.0000
  C   C105      1.0  0.16578464529454087  0.7168821703425537  0.7336787363857977  1.0000
  C   C106      1.0  0.33421535479823217  0.21688216966308885  0.7663212634561396  1.0000
  C   C107      1.0  0.8342153549414704  0.28311782955964476  0.26632126357510694  1.0000
  C   C108      1.0  0.665784645437779  0.7831178302391097  0.23367873650476495  1.0000
  N   N1        1.0  0.40653488425163825  0.8045773519082648  0.5649611968893613  1.0000
  N   N2        1.0  0.0934651159675254  0.3045773512287999  0.9350388033957474  1.0000
  N   N3        1.0  0.5934651161107637  0.19542264799393372  0.4350388035147149  1.0000
  N   N4        1.0  0.9065348836015598  0.6954226486733986  0.06496119656687849  1.0000
  N   N5        1.0  0.24022563682967843  0.7336752180817249  0.5223976997366359  1.0000
  N   N6        1.0  0.25977436272255927  0.23367521885899126  0.9776023005501943  1.0000
  N   N7        1.0  0.7597743627394068  0.2663247818204736  0.47760230022599004  1.0000
  N   N8        1.0  0.740225636846526  0.7663247810432072  0.022397699412431662  1.0000
  N   N9        1.0  0.26537081328628787  0.7357289396406874  0.582329508134713  1.0000
  N   N10       1.0  0.23462918613955921  0.23572893896122257  0.9176704917089455  1.0000
  N   N11       1.0  0.7346291862827973  0.26427106026151104  0.41767049182791294  1.0000
  N   N12       1.0  0.7653708134295261  0.764271060940976  0.08232950825368034  1.0000
  N   N13       1.0  0.006198850345780627  0.7637301460386692  0.686084619644291  1.0000
  N   N14       1.0  0.49380114974699235  0.2637301468159356  0.8139153801976461  1.0000
  N   N15       1.0  0.9938011498902306  0.23626985386352925  0.31391538031661353  1.0000
  N   N16       1.0  0.5061988504890188  0.7362698545429941  0.18608461976325835  1.0000
  O   O1        1.0  0.6657288153815163  0.7613941507530665  0.4693510197294431  1.0000
  O   O2        1.0  0.8342711849977331  0.26139415007360156  0.030648980350428782  1.0000
  O   O3        1.0  0.334271184854495  0.23860584914913202  0.5306489802314615  1.0000
  O   O4        1.0  0.165728815238278  0.738605849828597  0.9693510196104758  1.0000
  O   O5        1.0  0.11141011624738385  0.7106100187689061  0.6284728655581995  1.0000
  O   O6        1.0  0.3885898838453891  0.2106100195461724  0.8715271342837377  1.0000
  O   O7        1.0  0.8885898833217015  0.28938998113329245  0.37152713440442653  1.0000
  O   O8        1.0  0.611410116390622  0.7893899803560261  0.12847286567716681  1.0000
  S   S1        1.0  0.3880528140299959  0.7664206572667718  0.680084471038715  1.0000
  S   S2        1.0  0.11194718606277712  0.2664206565873069  0.819915528803222  1.0000
  S   S3        1.0  0.6119471862060153  0.2335793426354267  0.3199155289221895  1.0000
  S   S4        1.0  0.888052814173234  0.7335793433148915  0.18008447115768236  1.0000
