data_image0
_chemical_formula_structural       H36C22N2O2F8I2
_chemical_formula_sum              "H36 C22 N2 O2 F8 I2"
_cell_length_a       5.676303450312871
_cell_length_b       11.0253449745477
_cell_length_c       12.36783879931123
_cell_angle_alpha    66.38963342141274
_cell_angle_beta     87.4745569288159
_cell_angle_gamma    88.99541653984542

_space_group_name_H-M_alt    "P 1"
_space_group_IT_number       1

loop_
  _space_group_symop_operation_xyz
  'x, y, z'

loop_
  _atom_site_type_symbol
  _atom_site_label
  _atom_site_symmetry_multiplicity
  _atom_site_fract_x
  _atom_site_fract_y
  _atom_site_fract_z
  _atom_site_occupancy
  H   H1        1.0  0.08770390641376166  0.5813810952307281  0.8110293977519718  1.0000
  H   H2        1.0  0.9122960949529201  0.4186189051343773  0.18897060221601444  1.0000
  H   H3        1.0  0.17823206180111964  0.6046331765084697  0.9372002263653715  1.0000
  H   H4        1.0  0.8217679378038408  0.39536682386259026  0.06279977360095707  1.0000
  H   H5        1.0  0.3443060998993458  0.49930237921079934  0.8845099564649326  1.0000
  H   H6        1.0  0.6556939014879279  0.5006976202462318  0.11549004350517474  1.0000
  H   H7        1.0  0.694386050156759  0.6390297944270008  0.8967501117965634  1.0000
  H   H8        1.0  0.30561394944820147  0.3609702059440591  0.10324988816976519  1.0000
  H   H9        1.0  0.5051455578454814  0.7535686838039568  0.9265682315655663  1.0000
  H   H10       1.0  0.494854441759479  0.2464313165671032  0.07343176840076211  1.0000
  H   H11       1.0  0.7075212053014031  0.8108446123376305  0.8026194747535642  1.0000
  H   H12       1.0  0.29247879608587074  0.18915538711940041  0.19738052521654315  1.0000
  H   H13       1.0  0.1411276993372175  0.8450082312370395  0.8021413600046119  1.0000
  H   H14       1.0  0.8588723002883348  0.1549917682259461  0.19785863996383785  1.0000
  H   H15       1.0  0.37143292457247085  0.923496706516034  0.6983456555373764  1.0000
  H   H16       1.0  0.6285670750324895  0.0765032938550261  0.3016543444289521  1.0000
  H   H17       1.0  0.9966213666411935  0.9345439990227109  0.5976400225144709  1.0000
  H   H18       1.0  0.0033786329637669997  0.06545600134834902  0.4023599774518577  1.0000
  H   H19       1.0  0.9758646033857599  0.7604892719787736  0.6589838963282838  1.0000
  H   H20       1.0  0.024135396219200574  0.23951072839228632  0.3410161036380448  1.0000
  H   H21       1.0  0.3820992400810652  0.9246759908224935  0.49737012963432176  1.0000
  H   H22       1.0  0.6179007595444872  0.075324008640492  0.5026298703341279  1.0000
  H   H23       1.0  0.16323788392798927  0.8444245290089519  0.4529989164141366  1.0000
  H   H24       1.0  0.836762115676971  0.155575471362108  0.547001083552192  1.0000
  H   H25       1.0  0.36665638371174525  0.5008607937832511  0.6135620509443577  1.0000
  H   H26       1.0  0.6333436159138071  0.49913920567973435  0.3864379490240921  1.0000
  H   H27       1.0  0.2142318555252172  0.6059603692791151  0.487063256391022  1.0000
  H   H28       1.0  0.7857681440797432  0.3940396310919447  0.5129367435753066  1.0000
  H   H29       1.0  0.1026647266293484  0.5823844995579383  0.6306631810140795  1.0000
  H   H30       1.0  0.8973352729962041  0.41761549990504737  0.3693368189543701  1.0000
  H   H31       1.0  0.7332340838173023  0.8137455883932476  0.4728887173123845  1.0000
  H   H32       1.0  0.26676591578765835  0.18625441197781237  0.5271112826539441  1.0000
  H   H33       1.0  0.5451438844026733  0.7618648918546562  0.38789849050189984  1.0000
  H   H34       1.0  0.45485611522287916  0.23813510760832923  0.6121015094665498  1.0000
  H   H35       1.0  0.7238442404929395  0.643829051135868  0.49533178084417523  1.0000
  H   H36       1.0  0.27615575911202084  0.35617094923519194  0.5046682191221534  1.0000
  C   C1        1.0  0.8954551019181114  0.13608527943502144  0.8420714650995431  1.0000
  C   C2        1.0  0.1045448977074411  0.8639147200279642  0.15792853486890662  1.0000
  C   C3        1.0  0.9435954106252703  0.07086956364689448  0.9763696219232183  1.0000
  C   C4        1.0  0.05640458897969003  0.9291304367241655  0.023630378043110283  1.0000
  C   C5        1.0  0.3973090081817846  0.7107184960420968  0.7812916237074722  1.0000
  C   C6        1.0  0.602690991443768  0.28928150342088876  0.2187083762609775  1.0000
  C   C7        1.0  0.24150047813362327  0.5912402148648592  0.857431115029111  1.0000
  C   C8        1.0  0.7584995232536504  0.4087597845921719  0.14256888494099632  1.0000
  C   C9        1.0  0.5894680669995018  0.7291367353060043  0.8563467460933448  1.0000
  C   C10       1.0  0.4105319326054587  0.2708632650650555  0.14365325387298383  1.0000
  C   C11       1.0  0.2509067351042842  0.8379777576959698  0.7296563603893544  1.0000
  C   C12       1.0  0.7490932662623977  0.16202224266913562  0.2703436395786319  1.0000
  C   C13       1.0  0.10184387175042707  0.8431498005571753  0.6288132296609508  1.0000
  C   C14       1.0  0.8981561296162547  0.15685019980793016  0.37118677030703545  1.0000
  C   C15       1.0  0.2630632543699205  0.8384897135044277  0.529147789554144  1.0000
  C   C16       1.0  0.7369367452556319  0.16151028595855804  0.4708522104143057  1.0000
  C   C17       1.0  0.41341045140248506  0.7122557527453005  0.5661170929698428  1.0000
  C   C18       1.0  0.5865895482024754  0.2877442476257594  0.43388290699648574  1.0000
  C   C19       1.0  0.26425830816055457  0.5926228881922174  0.5759413479856775  1.0000
  C   C20       1.0  0.7357416914649978  0.40737711127076814  0.42405865198277215  1.0000
  C   C21       1.0  0.6178146329947657  0.7336028865220702  0.47545186325391914  1.0000
  C   C22       1.0  0.3821853666101948  0.2663971138489898  0.5245481367124094  1.0000
  N   N1        1.0  0.5155254548461868  0.6829903022493523  0.6832675228763454  1.0000
  N   N2        1.0  0.484474546541087  0.31700969720767863  0.31673247709376195  1.0000
  O   O1        1.0  0.6950716185873791  0.6051120826709986  0.7096892031750133  1.0000
  O   O2        1.0  0.3049283810381734  0.39488791679198687  0.2903107967934364  1.0000
  F   F1        1.0  0.7377235420195003  0.06100449161964894  0.815110427543062  1.0000
  F   F2        1.0  0.262276457606052  0.9389955078433365  0.1848895724253878  1.0000
  F   F3        1.0  0.0994220702361142  0.1403972131015851  0.7774089663490056  1.0000
  F   F4        1.0  0.9005779293688461  0.8596027872694747  0.22259103361732316  1.0000
  F   F5        1.0  0.732514163565885  0.06351323856147208  0.03665060829349984  1.0000
  F   F6        1.0  0.2674858360390756  0.9364867618095878  0.9633493916728287  1.0000
  F   F7        1.0  0.09233852524366915  0.15272492480576647  0.0003713895103890084  1.0000
  F   F8        1.0  0.9076614761436046  0.8472750746512645  0.9996286104597183  1.0000
  I   I1        1.0  0.7607867820467182  0.34005045129164885  0.7918043027896695  1.0000
  I   I2        1.0  0.2392132175582421  0.659949549079411  0.20819569717665917  1.0000
