data_image0
_chemical_formula_structural       H76C88N16O20Br4
_chemical_formula_sum              "H76 C88 N16 O20 Br4"
_cell_length_a       8.563668852111801
_cell_length_b       19.582120113138004
_cell_length_c       12.292161405573546
_cell_angle_alpha    90.0
_cell_angle_beta     88.19695625544158
_cell_angle_gamma    90.0

_space_group_name_H-M_alt    "P 1"
_space_group_IT_number       1

loop_
  _space_group_symop_operation_xyz
  'x, y, z'

loop_
  _atom_site_type_symbol
  _atom_site_label
  _atom_site_symmetry_multiplicity
  _atom_site_fract_x
  _atom_site_fract_y
  _atom_site_fract_z
  _atom_site_occupancy
  H   H1        1.0  0.7892277401842139  0.25495677082740276  0.4224044669137905  1.0000
  H   H2        1.0  0.21077225915718464  0.7549567710026135  0.07759553346408127  1.0000
  H   H3        1.0  0.21077225904107696  0.7450432290123488  0.5775955330029734  1.0000
  H   H4        1.0  0.7892277400681063  0.245043229347808  0.9224044664526827  1.0000
  H   H5        1.0  0.22518057908233036  0.5158554687458324  0.9011857444312321  1.0000
  H   H6        1.0  0.7748194211787478  0.015855469081291703  0.5988142558239676  1.0000
  H   H7        1.0  0.7748194213111491  0.4841445310939191  0.09881425547127079  1.0000
  H   H8        1.0  0.22518057803024938  0.9841445307584599  0.40118574490660097  1.0000
  H   H9        1.0  0.3540153238416292  0.4466955273209315  0.9109968269118094  1.0000
  H   H10       1.0  0.645984675267554  0.9466955274961423  0.5890031725438468  1.0000
  H   H11       1.0  0.6459846753836617  0.5533044725188201  0.08900317300495461  1.0000
  H   H12       1.0  0.35401532395773677  0.05330447285427923  0.41099682737291715  1.0000
  H   H13       1.0  0.18747110445687398  0.4383271688871551  0.8290975239305504  1.0000
  H   H14       1.0  0.8125288958042042  0.938327168551696  0.6709024763246495  1.0000
  H   H15       1.0  0.8125288947521232  0.5616728314632663  0.17090247680001824  1.0000
  H   H16       1.0  0.18747110458927532  0.061672831288055584  0.3290975235778535  1.0000
  H   H17       1.0  0.24473262820897856  0.5422719475035611  0.20437174215694182  1.0000
  H   H18       1.0  0.7552673723169021  0.042271947328350365  0.2956282573928643  1.0000
  H   H19       1.0  0.7552673721845009  0.45772805284686036  0.7956282577455612  1.0000
  H   H20       1.0  0.24473262807657725  0.9577280525114011  0.7043717425096387  1.0000
  H   H21       1.0  0.38526981267311655  0.5067661899051525  0.10855547812299354  1.0000
  H   H22       1.0  0.6147301878364705  0.006766189729941742  0.3914445222406172  1.0000
  H   H23       1.0  0.6147301877203629  0.49323380993459903  0.8914445217795094  1.0000
  H   H24       1.0  0.3852698125570089  0.9932338101098097  0.6085554776618858  1.0000
  H   H25       1.0  0.23776488670915133  0.5599632458920114  0.06217176859614575  1.0000
  H   H26       1.0  0.7622351138167295  0.059963245716800735  0.4378282309536603  1.0000
  H   H27       1.0  0.7622351136843282  0.44003675445841  0.9378282313063573  1.0000
  H   H28       1.0  0.23776488657674996  0.9400367541229507  0.5621717689488426  1.0000
  H   H29       1.0  0.8697517799748103  0.38077985360723593  0.4257233617013222  1.0000
  H   H30       1.0  0.13024821936658823  0.8807798537824467  0.07427663867654954  1.0000
  H   H31       1.0  0.1302482192341869  0.6192201462325156  0.5742766390292464  1.0000
  H   H32       1.0  0.8697517798587027  0.11922014656797478  0.9257233612402145  1.0000
  H   H33       1.0  0.9879690022285926  0.3060292202977239  0.43574326729258916  1.0000
  H   H34       1.0  0.012030998297288228  0.8060292204729346  0.064256732257217  1.0000
  H   H35       1.0  0.012030998164886881  0.6939707795420277  0.5642567326099138  1.0000
  H   H36       1.0  0.9879690020961913  0.19397077987748687  0.9357432676452859  1.0000
  H   H37       1.0  0.07275451576689348  0.38314626540188684  0.38910325550346614  1.0000
  H   H38       1.0  0.9272454847426936  0.8831462655770976  0.11089674486014454  1.0000
  H   H39       1.0  0.9272454846265861  0.6168537344378647  0.6108967443990367  1.0000
  H   H40       1.0  0.07275451565078582  0.11685373477332392  0.8891032550423584  1.0000
  H   H41       1.0  0.41257656039690055  0.3125921113053108  0.4426723773880784  1.0000
  H   H42       1.0  0.5874234389607917  0.8125921114805215  0.057327622175988774  1.0000
  H   H43       1.0  0.5874234388283902  0.6874078885344408  0.5573276225286855  1.0000
  H   H44       1.0  0.41257656026449924  0.18740788835923003  0.9426723777407752  1.0000
  H   H45       1.0  0.7188882033166131  0.0554393438365051  0.10265433044149476  1.0000
  H   H46       1.0  0.2811117960247855  0.5554393440117158  0.39734566993637704  1.0000
  H   H47       1.0  0.2811117970768664  0.9445606560032466  0.897345669461008  1.0000
  H   H48       1.0  0.7188882032005054  0.4445606563387056  0.6026543299803869  1.0000
  H   H49       1.0  0.5451217543422545  0.13776455431861276  0.21211135081751245  1.0000
  H   H50       1.0  0.4548782461836264  0.6377645544938235  0.28788864873229364  1.0000
  H   H51       1.0  0.454878246051225  0.8622354455211387  0.7878886490849905  1.0000
  H   H52       1.0  0.5451217542098531  0.36223544534592805  0.7121113511702093  1.0000
  H   H53       1.0  0.5683244496939833  0.39673228614238404  0.32924842992685555  1.0000
  H   H54       1.0  0.4316755496474152  0.8967322858069249  0.17075157045101622  1.0000
  H   H55       1.0  0.43167554951501386  0.6032677142080375  0.6707515708037131  1.0000
  H   H56       1.0  0.5683244495778756  0.10326771403282672  0.8292484294657478  1.0000
  H   H57       1.0  0.21865731240485825  0.01615560971805844  0.06389379166267797  1.0000
  H   H58       1.0  0.7813426881047288  0.5161556098932693  0.43610620870093275  1.0000
  H   H59       1.0  0.7813426879723275  0.9838443901216932  0.9361062090536295  1.0000
  H   H60       1.0  0.21865731228875057  0.48384439045715233  0.5638937912015702  1.0000
  H   H61       1.0  0.3747015296710197  0.3122466757773435  0.0331566911486768  1.0000
  H   H62       1.0  0.6252984696703788  0.8122466759525543  0.46684330922919504  1.0000
  H   H63       1.0  0.6252984695542712  0.6877533240624081  0.9668433087680871  1.0000
  H   H64       1.0  0.3747015307231006  0.1877533238871973  0.533156690673308  1.0000
  H   H65       1.0  0.019699874467107435  0.35732412474099134  0.9082339281846722  1.0000
  H   H66       1.0  0.9803001257939709  0.857324124916202  0.5917660720705276  1.0000
  H   H67       1.0  0.9803001247418898  0.6426758750987602  0.0917660725458964  1.0000
  H   H68       1.0  0.01969987459950878  0.1426758754342194  0.40823392783197543  1.0000
  H   H69       1.0  0.21992319328613044  0.22577788944485788  0.14776667333506435  1.0000
  H   H70       1.0  0.7800768072234567  0.7257778896200686  0.3522333270285464  1.0000
  H   H71       1.0  0.7800768071073491  0.7742221103948937  0.8522333265674387  1.0000
  H   H72       1.0  0.2199231931700228  0.27422211021968296  0.6477666728739566  1.0000
  H   H73       1.0  0.10104505394367533  0.4524650246658181  0.2781658463150175  1.0000
  H   H74       1.0  0.8989549453977232  0.9524650248410289  0.2218341540628543  1.0000
  H   H75       1.0  0.8989549452816156  0.5475349751739335  0.7218341536017465  1.0000
  H   H76       1.0  0.10104505499575629  0.0475349749987227  0.7781658458396485  1.0000
  C   C1        1.0  0.8391090285969204  0.2791383531721205  0.2575619909937513  1.0000
  C   C2        1.0  0.16089097191266669  0.7791383528366612  0.2424380093698594  1.0000
  C   C3        1.0  0.160890971796559  0.720861647178301  0.7424380089087517  1.0000
  C   C4        1.0  0.8391090284808127  0.22086164700309024  0.7575619905326436  1.0000
  C   C5        1.0  0.2978649283386549  0.26670455138797944  0.30250597626211645  1.0000
  C   C6        1.0  0.7021350721709323  0.7667045510525202  0.19749402410149436  1.0000
  C   C7        1.0  0.7021350720548246  0.7332954489624421  0.6974940236403866  1.0000
  C   C8        1.0  0.29786492822254723  0.23329544878723135  0.8025059758010086  1.0000
  C   C9        1.0  0.46270867391331355  0.0394664324156346  0.0945034882655057  1.0000
  C   C10       1.0  0.5372913265962737  0.5394664325908454  0.405496512098105  1.0000
  C   C11       1.0  0.537291326480166  0.960533567424117  0.9054965116369972  1.0000
  C   C12       1.0  0.46270867379720587  0.46053356775957616  0.5945034878043979  1.0000
  C   C13       1.0  0.22952928502408745  0.4599377221650957  0.9050440004885543  1.0000
  C   C14       1.0  0.7704707152532844  0.9599377218296365  0.5949559989528409  1.0000
  C   C15       1.0  0.770470715369392  0.5400622781853257  0.0949559994139487  1.0000
  C   C16       1.0  0.2295292851401951  0.040062278010115034  0.40504400094966203  1.0000
  C   C17       1.0  0.2614158565248193  0.5204502536557482  0.12271547198169774  1.0000
  C   C18       1.0  0.7385841440010615  0.02045025399120724  0.3772845275681083  1.0000
  C   C19       1.0  0.7385841438686602  0.4795497461840035  0.8772845279208052  1.0000
  C   C20       1.0  0.26141585639241793  0.9795497463592142  0.6227154723343946  1.0000
  C   C21       1.0  0.6569953019786383  0.1943633584111484  0.32756835247722715  1.0000
  C   C22       1.0  0.34300469854724247  0.6943633585863592  0.17243164707257896  1.0000
  C   C23       1.0  0.3430046984148411  0.8056366414286033  0.6724316474252758  1.0000
  C   C24       1.0  0.656995301846237  0.30563664176406236  0.8275683528299239  1.0000
  C   C25       1.0  0.9671665069365973  0.3521854477530748  0.38815857938917864  1.0000
  C   C26       1.0  0.03283349358928344  0.8521854479282855  0.11184142016062745  1.0000
  C   C27       1.0  0.0328334934568821  0.6478145520866768  0.6118414205133242  1.0000
  C   C28       1.0  0.967166506804196  0.147814551911466  0.8881585797418755  1.0000
  C   C29       1.0  0.4053959219382812  0.31499902688583453  0.35431649623860345  1.0000
  C   C30       1.0  0.5946040785713058  0.8149990270610453  0.14568350412500733  1.0000
  C   C31       1.0  0.5946040784389046  0.6850009729539169  0.6456835044777042  1.0000
  C   C32       1.0  0.40539592182217354  0.18500097328937617  0.8543164957774957  1.0000
  C   C33       1.0  0.626879094619408  0.03095391236995464  0.05631876193341028  1.0000
  C   C34       1.0  0.37312090590647273  0.5309539120344954  0.4436812376163958  1.0000
  C   C35       1.0  0.37312090577407137  0.9690460879804668  0.9436812379690926  1.0000
  C   C36       1.0  0.6268790944870067  0.46904608780525614  0.5563187622861071  1.0000
  C   C37       1.0  0.4890546772932322  0.3598984583529162  0.29356033642977886  1.0000
  C   C38       1.0  0.51094532206446  0.8598984585281269  0.20643966313428833  1.0000
  C   C39       1.0  0.5109453231002473  0.6401015414868354  0.7064396634727241  1.0000
  C   C40       1.0  0.4890546771608309  0.14010154131162464  0.7935603367824756  1.0000
  C   C41       1.0  0.33822394269688794  0.006532032244771195  0.033293725072767205  1.0000
  C   C42       1.0  0.6617760578289928  0.506532032419982  0.46670627447703883  1.0000
  C   C43       1.0  0.6617760576965915  0.9934679675949805  0.9667062748297357  1.0000
  C   C44       1.0  0.3382239425644866  0.4934679674197696  0.533293725425464  1.0000
  C   C45       1.0  0.6961328534931307  0.20394472084361148  0.12931500085790407  1.0000
  C   C46       1.0  0.3038671458482679  0.7039447210188222  0.3706849995199677  1.0000
  C   C47       1.0  0.30386714573216017  0.7960552789961401  0.8706849990588599  1.0000
  C   C48       1.0  0.696132853377023  0.29605527933159925  0.6293150003967962  1.0000
  C   C49       1.0  0.8097938304832583  0.259350490174588  0.14827888754703988  1.0000
  C   C50       1.0  0.19020617002632886  0.7593504903497987  0.3517211128165709  1.0000
  C   C51       1.0  0.19020616991022118  0.7406495096651635  0.851721112355463  1.0000
  C   C52       1.0  0.8097938303671506  0.24064951000062274  0.6482788870859321  1.0000
  C   C53       1.0  0.47689499411473296  0.3621759124662774  0.17388264732924016  1.0000
  C   C54       1.0  0.5231050052266655  0.8621759121308182  0.32611735304863165  1.0000
  C   C55       1.0  0.5231050062787465  0.6378240878841441  0.8261173525732627  1.0000
  C   C56       1.0  0.4768949939823317  0.13782408770893334  0.673882647681937  1.0000
  C   C57       1.0  0.9676349564129408  0.34498749476404006  0.07972252103957939  1.0000
  C   C58       1.0  0.03236504409664642  0.8449874949392508  0.4202774793240313  1.0000
  C   C59       1.0  0.03236504398053876  0.6550125050757116  0.9202774788629234  1.0000
  C   C60       1.0  0.967634956296833  0.1550125049005008  0.5797225205784716  1.0000
  C   C61       1.0  0.3768065928235565  0.31088503771946485  0.12174084811050377  1.0000
  C   C62       1.0  0.623193406517842  0.8108850378946756  0.37825915226736806  1.0000
  C   C63       1.0  0.6231934064017343  0.6891149621202867  0.8782591518062601  1.0000
  C   C64       1.0  0.3768065927074489  0.18911496245574588  0.621740847649396  1.0000
  C   C65       1.0  0.040161710089936166  0.37752973515058835  0.9891285778602957  1.0000
  C   C66       1.0  0.9598382901874358  0.8775297353257991  0.5108714215810994  1.0000
  C   C67       1.0  0.9598382903035434  0.6224702646891632  0.010871422042207216  1.0000
  C   C68       1.0  0.040161710206043824  0.12247026502462238  0.4891285783214035  1.0000
  C   C69       1.0  0.2946526689514677  0.26506589276395887  0.18240700001533255  1.0000
  C   C70       1.0  0.7053473303899308  0.7650658924284998  0.31759300036253924  1.0000
  C   C71       1.0  0.7053473314420118  0.7349341075864627  0.8175929998871704  1.0000
  C   C72       1.0  0.29465266883536007  0.2349341074112519  0.6824069995542248  1.0000
  C   C73       1.0  0.1405823829302707  0.43197387265154835  0.0015034833945585975  1.0000
  C   C74       1.0  0.8594176164274215  0.9319738728267591  0.4984965161695086  1.0000
  C   C75       1.0  0.8594176162950202  0.5680261271882032  0.9984965165222054  1.0000
  C   C76       1.0  0.140582383966058  0.06802612701299245  0.5015034837329944  1.0000
  C   C77       1.0  0.16024862550512942  0.45943278552172556  0.1083244205502507  1.0000
  C   C78       1.0  0.8397513738362692  0.9594327856969362  0.391675579827621  1.0000
  C   C79       1.0  0.83975137488835  0.540567214318026  0.8916755793522522  1.0000
  C   C80       1.0  0.16024862538902176  0.0405672141428153  0.6083244200891429  1.0000
  C   C81       1.0  0.08703673693670815  0.4287389563281877  0.19895767961525676  1.0000
  C   C82       1.0  0.912963262420984  0.9287389565033983  0.30104231994881037  1.0000
  C   C83       1.0  0.9129632634567714  0.5712610435115639  0.8010423202872462  1.0000
  C   C84       1.0  0.08703673680430679  0.07126104333635315  0.6989576799679537  1.0000
  C   C85       1.0  0.9965482218874013  0.36989863345492763  0.18720036021827985  1.0000
  C   C86       1.0  0.0034517786221856745  0.8698986336301383  0.31279964014533085  1.0000
  C   C87       1.0  0.003451778489784325  0.630101366384824  0.8127996404980278  1.0000
  C   C88       1.0  0.9965482217712938  0.13010136672028316  0.687200359757172  1.0000
  N   N1        1.0  0.7713108549683256  0.24435484065842622  0.34110425189097104  1.0000
  N   N2        1.0  0.22868914555755518  0.7443548403229671  0.1588957476588351  1.0000
  N   N3        1.0  0.22868914542515384  0.7556451596919953  0.6588957480115318  1.0000
  N   N4        1.0  0.7713108548359243  0.25564515951678457  0.8411042522436678  1.0000
  N   N5        1.0  0.9329528579871021  0.33331081528914536  0.27523124350954503  1.0000
  N   N6        1.0  0.06704714253877866  0.8333108154643561  0.22476875604026111  1.0000
  N   N7        1.0  0.06704714240637732  0.6666891845506062  0.724768756392958  1.0000
  N   N8        1.0  0.9329528578547008  0.16668918437539543  0.7752312438622417  1.0000
  N   N9        1.0  0.6237716475120842  0.17808434683537291  0.2218173626907307  1.0000
  N   N10       1.0  0.376228352997503  0.6780843470105836  0.27818263767288  1.0000
  N   N11       1.0  0.37622835288139533  0.8219156530043787  0.7781826372117722  1.0000
  N   N12       1.0  0.6237716473959766  0.32191565333983785  0.7218173622296229  1.0000
  N   N13       1.0  0.8731418582088187  0.2907378964640445  0.06329259018138224  1.0000
  N   N14       1.0  0.12685814114887348  0.7907378966392553  0.43670740938268493  1.0000
  N   N15       1.0  0.12685814101647214  0.7092621033757072  0.9367074097353818  1.0000
  N   N16       1.0  0.873141859244606  0.20926210320049635  0.563292590519818  1.0000
  O   O1        1.0  0.21031426562725825  0.2300525118818758  0.35966479190464407  1.0000
  O   O2        1.0  0.7896857348823288  0.7300525120570865  0.1403352084589667  1.0000
  O   O3        1.0  0.7896857347662213  0.7699474879578757  0.6403352079978589  1.0000
  O   O4        1.0  0.2103142654948569  0.26994748778266503  0.8596647922573408  1.0000
  O   O5        1.0  0.42761180299316665  0.07364004927293429  0.17709482856901024  1.0000
  O   O6        1.0  0.572388196348232  0.573640049448145  0.3229051718088616  1.0000
  O   O7        1.0  0.572388197400313  0.9263599505668172  0.8229051713334927  1.0000
  O   O8        1.0  0.4276118028770589  0.42635995039160657  0.6770948281079026  1.0000
  O   O9        1.0  0.5890173471567751  0.16835511277393042  0.4062510250422  1.0000
  O   O10       1.0  0.41098265218462343  0.6683551129491412  0.09374897533567178  1.0000
  O   O11       1.0  0.41098265205222206  0.8316448870658211  0.5937489756883686  1.0000
  O   O12       1.0  0.5890173470406674  0.33164488740128034  0.9062510245810922  1.0000
  O   O13       1.0  0.6586839068457666  0.18614635948200564  0.03722643270537589  1.0000
  O   O14       1.0  0.3413160936801142  0.6861463596572164  0.4627735668444303  1.0000
  O   O15       1.0  0.3413160935477128  0.8138536403577459  0.962773567197127  1.0000
  O   O16       1.0  0.6586839067133652  0.3138536401825352  0.5372264330580726  1.0000
  O   O17       1.0  0.550357876481713  0.4058742727590371  0.12038239820446804  1.0000
  O   O18       1.0  0.44964212402787423  0.9058742729342479  0.3796176021591427  1.0000
  O   O19       1.0  0.44964212391176656  0.5941257270807145  0.8796176016980348  1.0000
  O   O20       1.0  0.5503578763493115  0.09412572741617369  0.6203823985571648  1.0000
  Br  Br1       1.0  0.9965799901477588  0.11038552861034462  0.15507476003758247  1.0000
  Br  Br2       1.0  0.0034200092099334924  0.6103855287855554  0.34492523952648463  1.0000
  Br  Br3       1.0  0.003420009077532143  0.889614471229407  0.8449252398791816  1.0000
  Br  Br4       1.0  0.9965799900153574  0.3896144710541962  0.6550747603902793  1.0000
