data_image0
_chemical_formula_structural       H96C104N16O32
_chemical_formula_sum              "H96 C104 N16 O32"
_cell_length_a       22.129509543976866
_cell_length_b       5.111889866257017
_cell_length_c       20.67444767804706
_cell_angle_alpha    90.0
_cell_angle_beta     97.68371608825957
_cell_angle_gamma    90.0

_space_group_name_H-M_alt    "P 1"
_space_group_IT_number       1

loop_
  _space_group_symop_operation_xyz
  'x, y, z'

loop_
  _atom_site_type_symbol
  _atom_site_label
  _atom_site_symmetry_multiplicity
  _atom_site_fract_x
  _atom_site_fract_y
  _atom_site_fract_z
  _atom_site_occupancy
  H   H1        1.0  0.05021770564185452  0.8372973092110042  0.2507155137910713  1.0000
  H   H2        1.0  0.5502177056996516  0.3372973078667867  0.250715513920047  1.0000
  H   H3        1.0  0.050217706054608305  0.16270269152120712  0.7507155138378934  1.0000
  H   H4        1.0  0.5502177056564259  0.662702690909201  0.7507155139013353  1.0000
  H   H5        1.0  0.9497822943872882  0.16270269152120712  0.7492844864294566  1.0000
  H   H6        1.0  0.44978229432949135  0.662702690909201  0.749284486300481  1.0000
  H   H7        1.0  0.9497822939745344  0.8372973092110042  0.24928448638263448  1.0000
  H   H8        1.0  0.4497822943727169  0.3372973078667867  0.24928448631919267  1.0000
  H   H9        1.0  0.9983958635861379  0.4682576645088562  0.1838367908340169  1.0000
  H   H10       1.0  0.49839586352834087  0.96825766389685  0.18383679070504128  1.0000
  H   H11       1.0  0.9983958635429122  0.531742336223355  0.6838367908153052  1.0000
  H   H12       1.0  0.4983958634851152  0.031742336835361255  0.6838367906863296  1.0000
  H   H13       1.0  0.0016041364430050878  0.531742336223355  0.816163209386511  1.0000
  H   H14       1.0  0.501604136500802  0.031742336835361255  0.8161632095154867  1.0000
  H   H15       1.0  0.0016041364862306555  0.4682576645088562  0.31616320940522274  1.0000
  H   H16       1.0  0.5016041365440276  0.96825766389685  0.3161632095341983  1.0000
  H   H17       1.0  0.11896329881678813  0.6322094791855032  0.04024143223872117  1.0000
  H   H18       1.0  0.6189632988748458  0.1322094778412857  0.040241431884045345  1.0000
  H   H19       1.0  0.11896329877356257  0.3677905215467081  0.5402414322200095  1.0000
  H   H20       1.0  0.6189632988316202  0.8677905209347019  0.5402414318653337  1.0000
  H   H21       1.0  0.8810367012123547  0.3677905215467081  0.9597585679818067  1.0000
  H   H22       1.0  0.3810367011545577  0.8677905209347019  0.9597585678528311  1.0000
  H   H23       1.0  0.8810367012555803  0.6322094791855032  0.45975856800051845  1.0000
  H   H24       1.0  0.38103670119778327  0.1322094778412857  0.45975856787154284  1.0000
  H   H25       1.0  0.16547659195448933  0.9876093894989575  0.11394503330350615  1.0000
  H   H26       1.0  0.6654765920122864  0.4876093881547401  0.1139450334324818  1.0000
  H   H27       1.0  0.16547659236724313  0.01239061123325371  0.6139450333503284  1.0000
  H   H28       1.0  0.6654765919690608  0.5123906106212475  0.6139450334137702  1.0000
  H   H29       1.0  0.8345234076186742  0.01239061123325371  0.8860549668514881  1.0000
  H   H30       1.0  0.33452340801685654  0.5123906106212475  0.8860549667880461  1.0000
  H   H31       1.0  0.8345234076618998  0.9876093894989575  0.3860549668701997  1.0000
  H   H32       1.0  0.33452340760410276  0.4876093881547401  0.38605496674122397  1.0000
  H   H33       1.0  0.9566199724737415  0.22050131741694443  0.11428770698353607  1.0000
  H   H34       1.0  0.4566199724159446  0.7205013168049382  0.11428770685456043  1.0000
  H   H35       1.0  0.956619972430516  0.7794986833152668  0.6142877069648245  1.0000
  H   H36       1.0  0.456619972372719  0.2794986819710494  0.6142877068358488  1.0000
  H   H37       1.0  0.04338002755566194  0.7794986833152668  0.8857122927533403  1.0000
  H   H38       1.0  0.543380027613459  0.2794986819710494  0.8857122928823159  1.0000
  H   H39       1.0  0.043380027598887504  0.22050131741694443  0.38571229277205205  1.0000
  H   H40       1.0  0.5433800276566845  0.7205013168049382  0.3857122929010277  1.0000
  H   H41       1.0  0.9660433829749282  0.020812741037768433  0.04597966260435897  1.0000
  H   H42       1.0  0.46604338337311063  0.5208127404257622  0.045979662540917114  1.0000
  H   H43       1.0  0.966043383387682  0.9791872596944429  0.5459796626511811  1.0000
  H   H44       1.0  0.466043383329885  0.47918725835022535  0.5459796625222055  1.0000
  H   H45       1.0  0.03395661659823523  0.9791872596944429  0.9540203375506351  1.0000
  H   H46       1.0  0.5339566166562928  0.47918725835022535  0.9540203371959592  1.0000
  H   H47       1.0  0.033956616641460796  0.020812741037768433  0.4540203375693469  1.0000
  H   H48       1.0  0.5339566166995184  0.5208127404257622  0.454020337214671  1.0000
  H   H49       1.0  0.11030847437979002  0.5607898888672708  0.41993972273397745  1.0000
  H   H50       1.0  0.610308474437587  0.06078988947927697  0.4199397228629531  1.0000
  H   H51       1.0  0.11030847433656445  0.43921010990871684  0.9199397227152658  1.0000
  H   H52       1.0  0.6103084743943615  0.9392101112529344  0.9199397228442414  1.0000
  H   H53       1.0  0.8896915256493527  0.43921010990871684  0.5800602774865505  1.0000
  H   H54       1.0  0.38969152559155584  0.9392101112529344  0.5800602773575748  1.0000
  H   H55       1.0  0.8896915256925784  0.5607898888672708  0.08006027750526216  1.0000
  H   H56       1.0  0.3896915256347815  0.06078988947927697  0.08006027737628651  1.0000
  H   H57       1.0  0.12534823498159567  0.8489899046236211  0.5053346404217443  1.0000
  H   H58       1.0  0.6253482350393927  0.34898990523562734  0.5053346405507199  1.0000
  H   H59       1.0  0.12534823502482123  0.15101009415236644  0.005334640440455885  1.0000
  H   H60       1.0  0.6253482350826182  0.651010095496584  0.00533464056943153  1.0000
  H   H61       1.0  0.8746517650478077  0.15101009415236644  0.4946653593151323  1.0000
  H   H62       1.0  0.3746517649900108  0.651010095496584  0.4946653591861567  1.0000
  H   H63       1.0  0.8746517650045823  0.8489899046236211  0.9946653592964205  1.0000
  H   H64       1.0  0.3746517649467853  0.34898990523562734  0.9946653591674449  1.0000
  H   H65       1.0  0.2534552475655908  0.13705410686263303  0.44613268128753714  1.0000
  H   H66       1.0  0.7534552476233879  0.6370541062506268  0.44613268141651274  1.0000
  H   H67       1.0  0.2534552475223652  0.8629458938695782  0.9461326812688253  1.0000
  H   H68       1.0  0.7534552475801622  0.36294589252536075  0.9461326813978009  1.0000
  H   H69       1.0  0.7465447524635521  0.8629458938695782  0.5538673189329909  1.0000
  H   H70       1.0  0.24654475240575507  0.36294589252536075  0.5538673188040152  1.0000
  H   H71       1.0  0.7465447525067775  0.13705410686263303  0.05386731895170251  1.0000
  H   H72       1.0  0.24654475244898064  0.6370541062506268  0.05386731882272687  1.0000
  H   H73       1.0  0.2880688946188567  0.9918824080051238  0.3414377482524349  1.0000
  H   H74       1.0  0.7880688946766538  0.4918824066609064  0.34143774838141056  1.0000
  H   H75       1.0  0.2880688945756312  0.008117592727087451  0.8414377482337233  1.0000
  H   H76       1.0  0.7880688946334282  0.5081175921150812  0.8414377483626988  1.0000
  H   H77       1.0  0.7119311054102861  0.008117592727087451  0.6585622519680931  1.0000
  H   H78       1.0  0.21193110535248913  0.5081175921150812  0.6585622518391174  1.0000
  H   H79       1.0  0.7119311054535117  0.9918824080051238  0.15856225198680476  1.0000
  H   H80       1.0  0.2119311053957147  0.4918824066609064  0.15856225185782913  1.0000
  H   H81       1.0  0.23469455167558273  0.6340847034666982  0.2770082708009278  1.0000
  H   H82       1.0  0.7346945517333797  0.1340847040787044  0.2770082709299035  1.0000
  H   H83       1.0  0.23469455163235717  0.3659152972655131  0.7770082707822161  1.0000
  H   H84       1.0  0.7346945516901541  0.8659152966535067  0.7770082709111917  1.0000
  H   H85       1.0  0.7653054483535602  0.3659152972655131  0.7229917294196001  1.0000
  H   H86       1.0  0.26530544829576314  0.8659152966535067  0.7229917292906245  1.0000
  H   H87       1.0  0.7653054483967857  0.6340847034666982  0.2229917294383118  1.0000
  H   H88       1.0  0.26530544833898867  0.1340847040787044  0.22299172930933614  1.0000
  H   H89       1.0  0.13700221049664632  0.1392684659932393  0.22664099607398316  1.0000
  H   H90       1.0  0.6370022105544434  0.639268465381233  0.2266409962029588  1.0000
  H   H91       1.0  0.13700221045342076  0.860731534738972  0.7266409960552714  1.0000
  H   H92       1.0  0.6370022105112177  0.36073153339475444  0.7266409961842472  1.0000
  H   H93       1.0  0.8629977895324964  0.860731534738972  0.7733590041465448  1.0000
  H   H94       1.0  0.3629977894746995  0.36073153339475444  0.7733590040175692  1.0000
  H   H95       1.0  0.862997789575722  0.1392684659932393  0.2733590041652565  1.0000
  H   H96       1.0  0.36299778951792505  0.639268465381233  0.27335900403628083  1.0000
  C   C1        1.0  0.06312929221748513  0.7817524388345413  0.20346335703361443  1.0000
  C   C2        1.0  0.5631292918195634  0.28175243944654754  0.2034633566134048  1.0000
  C   C3        1.0  0.06312929217425955  0.2182475599414463  0.7034633570149028  1.0000
  C   C4        1.0  0.5631292917763379  0.7182475612856638  0.7034633565946932  1.0000
  C   C5        1.0  0.9368707078116577  0.2182475599414463  0.7965366431869135  1.0000
  C   C6        1.0  0.43687070820984014  0.7182475612856638  0.7965366431234715  1.0000
  C   C7        1.0  0.9368707078548834  0.7817524388345413  0.29653664320562517  1.0000
  C   C8        1.0  0.43687070779708637  0.28175243944654754  0.2965366430766495  1.0000
  C   C9        1.0  0.03500633734436544  0.5784534051718805  0.16603948620103914  1.0000
  C   C10       1.0  0.535006336946183  0.0784534057838867  0.166039486264481  1.0000
  C   C11       1.0  0.03500633730113987  0.4215465936041071  0.6660394861823274  1.0000
  C   C12       1.0  0.5350063369029574  0.9215465949483246  0.6660394862457693  1.0000
  C   C13       1.0  0.9649936626850381  0.4215465936041071  0.8339605135358374  1.0000
  C   C14       1.0  0.4649936630829598  0.9215465949483246  0.833960513956047  1.0000
  C   C15       1.0  0.9649936627282637  0.5784534051718805  0.33396051355454903  1.0000
  C   C16       1.0  0.464993662670206  0.0784534057838867  0.3339605139092249  1.0000
  C   C17       1.0  0.05498451822532721  0.5211794971535187  0.10606668489422588  1.0000
  C   C18       1.0  0.5549845182831241  0.021179497765524927  0.10606668502320153  1.0000
  C   C19       1.0  0.054984518182101656  0.47882050162246886  0.6060666848755142  1.0000
  C   C20       1.0  0.5549845182398986  0.9788205029666863  0.6060666850044898  1.0000
  C   C21       1.0  0.9450154818040764  0.47882050162246886  0.8939333148426505  1.0000
  C   C22       1.0  0.44501548174627925  0.9788205029666863  0.8939333147136749  1.0000
  C   C23       1.0  0.945015481847302  0.5211794971535187  0.39393331486136224  1.0000
  C   C24       1.0  0.4450154817895048  0.021179497765524927  0.3939333147323866  1.0000
  C   C25       1.0  0.10246274828942466  0.6694238685751738  0.08661676629950726  1.0000
  C   C26       1.0  0.6024627483472216  0.16942386918718003  0.0866167664284829  1.0000
  C   C27       1.0  0.10246274824619908  0.3305761302008137  0.5866167662807956  1.0000
  C   C28       1.0  0.602462748303996  0.8305761295888077  0.5866167664097712  1.0000
  C   C29       1.0  0.8975372517397183  0.3305761302008137  0.9133832339210206  1.0000
  C   C30       1.0  0.3975372516819212  0.8305761295888077  0.913383233792045  1.0000
  C   C31       1.0  0.8975372517829437  0.6694238685751738  0.41338323393973236  1.0000
  C   C32       1.0  0.3975372517251468  0.16942386918718003  0.4133832338107567  1.0000
  C   C33       1.0  0.12820659562284292  0.8680524358106146  0.12726907873916124  1.0000
  C   C34       1.0  0.62820659568064  0.36805243642262075  0.1272690788681369  1.0000
  C   C35       1.0  0.12820659557961736  0.13194756296537302  0.6272690787204496  1.0000
  C   C36       1.0  0.6282065956374144  0.6319475643095904  0.6272690788494252  1.0000
  C   C37       1.0  0.8717934044065606  0.13194756296537302  0.8727309209977152  1.0000
  C   C38       1.0  0.37179340434876357  0.6319475643095904  0.8727309208687396  1.0000
  C   C39       1.0  0.8717934044497861  0.8680524358106146  0.3727309210164269  1.0000
  C   C40       1.0  0.3717934043919891  0.36805243642262075  0.3727309208874512  1.0000
  C   C41       1.0  0.02892552709961807  0.3051675194133705  0.061893858829272924  1.0000
  C   C42       1.0  0.528925527157415  0.8051675188013644  0.06189385895824856  1.0000
  C   C43       1.0  0.02892552751237186  0.6948324813188408  0.561893858876095  1.0000
  C   C44       1.0  0.5289255271141895  0.1948324799746233  0.5618938589395369  1.0000
  C   C45       1.0  0.9710744724738061  0.6948324813188408  0.9381061408420698  1.0000
  C   C46       1.0  0.47107447287172777  0.1948324799746233  0.9381061412622793  1.0000
  C   C47       1.0  0.9710744725170317  0.3051675194133705  0.4381061408607814  1.0000
  C   C48       1.0  0.4710744729149534  0.8051675188013644  0.43810614128099107  1.0000
  C   C49       1.0  0.16916427378716936  0.5745787109749761  0.3445004382373754  1.0000
  C   C50       1.0  0.6691642738449664  0.07457871158698239  0.3445004383663511  1.0000
  C   C51       1.0  0.1691642737439438  0.42542128975723514  0.8445004382186638  1.0000
  C   C52       1.0  0.6691642738017408  0.9254212891452289  0.8445004383476394  1.0000
  C   C53       1.0  0.8308357262422341  0.42542128975723514  0.655499561499501  1.0000
  C   C54       1.0  0.3308357261844372  0.9254212891452289  0.6554995613705255  1.0000
  C   C55       1.0  0.8308357262854598  0.5745787109749761  0.1554995615182127  1.0000
  C   C56       1.0  0.3308357262276627  0.07457871158698239  0.15549956138923704  1.0000
  C   C57       1.0  0.14944253104023683  0.655152551721977  0.4029702021800205  1.0000
  C   C58       1.0  0.6494425310982944  0.15515255233398317  0.4029702018253447  1.0000
  C   C59       1.0  0.14944253099701127  0.3448474490102343  0.9029702021613089  1.0000
  C   C60       1.0  0.6494425310550689  0.844847448398228  0.9029702018066331  1.0000
  C   C61       1.0  0.8505574689889062  0.3448474490102343  0.5970297980405075  1.0000
  C   C62       1.0  0.35055746893110906  0.844847448398228  0.5970297979115318  1.0000
  C   C63       1.0  0.8505574690321316  0.655152551721977  0.0970297980592191  1.0000
  C   C64       1.0  0.3505574689743346  0.15515255233398317  0.09702979793024348  1.0000
  C   C65       1.0  0.18011175617324787  0.8571451820436579  0.4395272488895783  1.0000
  C   C66       1.0  0.6801117562310448  0.357145182655664  0.43952724901855394  1.0000
  C   C67       1.0  0.18011175613002234  0.1428548186885535  0.9395272488708665  1.0000
  C   C68       1.0  0.6801117561878193  0.6428548180765472  0.9395272489998423  1.0000
  C   C69       1.0  0.819888243855895  0.1428548186885535  0.5604727513309495  1.0000
  C   C70       1.0  0.31988824379809794  0.6428548180765472  0.560472751201974  1.0000
  C   C71       1.0  0.8198882438991206  0.8571451820436579  0.06047275134966131  1.0000
  C   C72       1.0  0.3198882438413235  0.357145182655664  0.06047275122068565  1.0000
  C   C73       1.0  0.23034746028027955  0.9786695744411927  0.4173951795366813  1.0000
  C   C74       1.0  0.7303474603380765  0.47866957505319885  0.4173951796656569  1.0000
  C   C75       1.0  0.230347460237054  0.021330426291018556  0.9173951795179697  1.0000
  C   C76       1.0  0.7303474602948511  0.5213304256790123  0.9173951796469454  1.0000
  C   C77       1.0  0.7696525397491238  0.021330426291018556  0.5826048202001951  1.0000
  C   C78       1.0  0.2696525396910663  0.5213304256790123  0.5826048205548711  1.0000
  C   C79       1.0  0.7696525397923495  0.9786695744411927  0.08260482021890682  1.0000
  C   C80       1.0  0.2696525397342919  0.47866957505319885  0.08260482057358265  1.0000
  C   C81       1.0  0.24944817353096285  0.8970245447321322  0.35917671730955364  1.0000
  C   C82       1.0  0.7494481735887597  0.39702454534413834  0.3591767174385293  1.0000
  C   C83       1.0  0.24944817348773723  0.10297545600007917  0.859176717290842  1.0000
  C   C84       1.0  0.7494481735455342  0.602975455388073  0.8591767174198176  1.0000
  C   C85       1.0  0.7505518264984408  0.10297545600007917  0.6408232824273228  1.0000
  C   C86       1.0  0.2505518264406437  0.602975455388073  0.6408232822983472  1.0000
  C   C87       1.0  0.7505518260856869  0.8970245447321322  0.1408232823805007  1.0000
  C   C88       1.0  0.25055182648386926  0.39702454534413834  0.14082328231705885  1.0000
  C   C89       1.0  0.21948575832766348  0.6955598170199759  0.3224945069198156  1.0000
  C   C90       1.0  0.7194857583854605  0.19555981763198219  0.3224945070487913  1.0000
  C   C91       1.0  0.21948575828443792  0.30444018371223525  0.8224945069011039  1.0000
  C   C92       1.0  0.7194857583422348  0.804440183100229  0.8224945070300795  1.0000
  C   C93       1.0  0.7805142417014793  0.30444018371223525  0.6775054933007123  1.0000
  C   C94       1.0  0.2805142416436824  0.804440183100229  0.6775054931717367  1.0000
  C   C95       1.0  0.780514241744705  0.6955598170199759  0.177505493319424  1.0000
  C   C96       1.0  0.2805142416869079  0.19555981763198219  0.17750549319044834  1.0000
  C   C97       1.0  0.13612500973641353  0.36217538101140984  0.30532322350928687  1.0000
  C   C98       1.0  0.6361250097942106  0.8621753803994037  0.30532322363826253  1.0000
  C   C99       1.0  0.13612500969318794  0.6378246197208014  0.8053232234905752  1.0000
  C   C100      1.0  0.636125009750985  0.13782462033280762  0.8053232236195508  1.0000
  C   C101      1.0  0.8638749902927293  0.6378246197208014  0.694676776711241  1.0000
  C   C102      1.0  0.36387499023493236  0.13782462033280762  0.6946767765822653  1.0000
  C   C103      1.0  0.8638749903359548  0.36217538101140984  0.19467677672995273  1.0000
  C   C104      1.0  0.3638749902781579  0.8621753803994037  0.19467677660097704  1.0000
  N   N1        1.0  0.10865596506425279  0.9229585952434884  0.18441374464231963  1.0000
  N   N2        1.0  0.6086559651220498  0.422958593899271  0.1844137447712953  1.0000
  N   N3        1.0  0.10865596502102723  0.07704140548872285  0.6844137446236079  1.0000
  N   N4        1.0  0.6086559650788242  0.5770414048767166  0.6844137447525835  1.0000
  N   N5        1.0  0.8913440349651507  0.07704140548872285  0.8155862550945568  1.0000
  N   N6        1.0  0.3913440349070931  0.5770414048767166  0.8155862554492327  1.0000
  N   N7        1.0  0.8913440350083763  0.9229585952434884  0.3155862551132685  1.0000
  N   N8        1.0  0.3913440349503186  0.422958593899271  0.31558625546794433  1.0000
  N   N9        1.0  0.9806756199603662  0.1742915073114379  0.07641141759568523  1.0000
  N   N10       1.0  0.48067561990256924  0.6742915086556553  0.07641141746670958  1.0000
  N   N11       1.0  0.9806756199171406  0.8257084914645497  0.5764114175769736  1.0000
  N   N12       1.0  0.4806756198593437  0.32570849207655594  0.5764114174479978  1.0000
  N   N13       1.0  0.019324380068776622  0.8257084914645497  0.9235885826248427  1.0000
  N   N14       1.0  0.5193243801265736  0.32570849207655594  0.9235885827538183  1.0000
  N   N15       1.0  0.01932438011200219  0.1742915073114379  0.42358858264355437  1.0000
  N   N16       1.0  0.5193243801697992  0.6742915086556553  0.42358858277253003  1.0000
  O   O1        1.0  0.0538911523456312  0.25114331364498377  0.011854361428482198  1.0000
  O   O2        1.0  0.5538911524034282  0.7511433130329775  0.011854361557457851  1.0000
  O   O3        1.0  0.05389115230240563  0.7488566870872275  0.5118543614097706  1.0000
  O   O4        1.0  0.5538911523602026  0.24885668769923372  0.5118543615387462  1.0000
  O   O5        1.0  0.9461088476837721  0.7488566870872275  0.9881456383083943  1.0000
  O   O6        1.0  0.44610884762597525  0.24885668769923372  0.9881456381794187  1.0000
  O   O7        1.0  0.9461088477269978  0.25114331364498377  0.48814563832710595  1.0000
  O   O8        1.0  0.4461088476692009  0.7511433130329775  0.4881456381981302  1.0000
  O   O9        1.0  0.1627089035615246  0.9439654210573294  0.4965028090323358  1.0000
  O   O10       1.0  0.6627089036195822  0.44396542166933556  0.49650280867766  1.0000
  O   O11       1.0  0.16270890351829903  0.05603457967488187  0.996502809013624  1.0000
  O   O12       1.0  0.662708903576096  0.5560345790628757  0.9965028091425996  1.0000
  O   O13       1.0  0.8372910964676183  0.05603457967488187  0.5034971911881921  1.0000
  O   O14       1.0  0.33729109640982124  0.5560345790628757  0.5034971910592165  1.0000
  O   O15       1.0  0.837291096510844  0.9439654210573294  0.0034971912069038415  1.0000
  O   O16       1.0  0.33729109645304683  0.44396542166933556  0.0034971910779281867  1.0000
  O   O17       1.0  0.16096510602327502  0.2965916734646198  0.2531893607179642  1.0000
  O   O18       1.0  0.660965106081072  0.7965916728526136  0.2531893608469399  1.0000
  O   O19       1.0  0.16096510598004943  0.7034083272675914  0.7531893606992525  1.0000
  O   O20       1.0  0.6609651060378464  0.20340832787959767  0.7531893608282282  1.0000
  O   O21       1.0  0.8390348940058681  0.7034083272675914  0.7468106395025638  1.0000
  O   O22       1.0  0.33903489394807085  0.20340832787959767  0.746810639373588  1.0000
  O   O23       1.0  0.8390348940490933  0.2965916734646198  0.2468106395212754  1.0000
  O   O24       1.0  0.33903489399129644  0.7965916728526136  0.24681063939229977  1.0000
  O   O25       1.0  0.0885635823137443  0.25731358546719246  0.3193917718990253  1.0000
  O   O26       1.0  0.5885635823715413  0.7573135848551863  0.31939177202800095  1.0000
  O   O27       1.0  0.08856358227051873  0.7426864152650188  0.8193917718803136  1.0000
  O   O28       1.0  0.5885635823283157  0.2426864139208013  0.8193917720092893  1.0000
  O   O29       1.0  0.9114364177153986  0.7426864152650188  0.6806082283215026  1.0000
  O   O30       1.0  0.4114364176576015  0.2426864139208013  0.680608228192527  1.0000
  O   O31       1.0  0.911436417758624  0.25731358546719246  0.1806082283402143  1.0000
  O   O32       1.0  0.41143641770082706  0.7573135848551863  0.18060822821123865  1.0000
