data_image0
_chemical_formula_structural       H72C64N16O24Cl8
_chemical_formula_sum              "H72 C64 N16 O24 Cl8"
_cell_length_a       20.609155759483826
_cell_length_b       5.089766390366829
_cell_length_c       19.358371680721106
_cell_angle_alpha    90.0
_cell_angle_beta     115.98433179485279
_cell_angle_gamma    90.0

_space_group_name_H-M_alt    "P 1"
_space_group_IT_number       1

loop_
  _space_group_symop_operation_xyz
  'x, y, z'

loop_
  _atom_site_type_symbol
  _atom_site_label
  _atom_site_symmetry_multiplicity
  _atom_site_fract_x
  _atom_site_fract_y
  _atom_site_fract_z
  _atom_site_occupancy
  H   H1        1.0  0.016114244801835424  0.4156514558318515  0.20303377394084834  1.0000
  H   H2        1.0  0.5161142443709659  0.9156514567781789  0.20303377355245958  1.0000
  H   H3        1.0  0.9838857554766832  0.4156514558318515  0.29696622634748865  1.0000
  H   H4        1.0  0.4838857556647843  0.9156514567781789  0.296966226161263  1.0000
  H   H5        1.0  0.9838857556492916  0.5843485440960766  0.7969662262708291  1.0000
  H   H6        1.0  0.48388575535528006  0.08434854314974925  0.7969662260920582  1.0000
  H   H7        1.0  0.016114244492331186  0.5843485440960766  0.7030337738716437  1.0000
  H   H8        1.0  0.5161142445435741  0.08434854314974925  0.7030337734758001  1.0000
  H   H9        1.0  0.9278202471024266  0.7917233132009371  0.18253218614260025  1.0000
  H   H10       1.0  0.4278202468084151  0.2917233122546097  0.18253218596382936  1.0000
  H   H11       1.0  0.0721797531760921  0.7917233132009371  0.31746781414573677  1.0000
  H   H12       1.0  0.5721797534701036  0.2917233122546097  0.31746781432450766  1.0000
  H   H13       1.0  0.0721797533487003  0.20827668672699107  0.8174678140690772  1.0000
  H   H14       1.0  0.5721797531605992  0.7082766876733184  0.8174678142553028  1.0000
  H   H15       1.0  0.9278202467929222  0.20827668672699107  0.6825321860733954  1.0000
  H   H16       1.0  0.42782024698102333  0.7082766876733184  0.6825321858871698  1.0000
  H   H17       1.0  0.8412422710959688  0.6368060499072141  0.9391939569980181  1.0000
  H   H18       1.0  0.3412422712840698  0.13680605092561343  0.9391939568117924  1.0000
  H   H19       1.0  0.15875772904565383  0.6368060499072141  0.5608060431444546  1.0000
  H   H20       1.0  0.6587577288575528  0.13680605092561343  0.5608060433306803  1.0000
  H   H21       1.0  0.15875772887304557  0.363193950020714  0.0608060432211141  1.0000
  H   H22       1.0  0.6587577291670571  0.8631939490023146  0.060806043399885  1.0000
  H   H23       1.0  0.841242271405473  0.363193950020714  0.4391939570672229  1.0000
  H   H24       1.0  0.34124227111146166  0.8631939490023146  0.43919395688845203  1.0000
  H   H25       1.0  0.931689873521052  0.26183179890579467  0.9701002193743504  1.0000
  H   H26       1.0  0.4316898732270406  0.7618317998521221  0.9701002191955799  1.0000
  H   H27       1.0  0.06831012662057055  0.26183179890579467  0.5298997807681219  1.0000
  H   H28       1.0  0.5683101266718136  0.7618317998521221  0.5298997803722785  1.0000
  H   H29       1.0  0.06831012693007488  0.7381682010221334  0.02989978083732681  1.0000
  H   H30       1.0  0.5683101264992052  0.23816820007580602  0.029899780448938033  1.0000
  H   H31       1.0  0.9316898733484439  0.7381682010221334  0.4701002194510102  1.0000
  H   H32       1.0  0.4316898735365448  0.23816820007580602  0.47010021926478457  1.0000
  H   H33       1.0  0.846163124207628  0.0539993938661282  0.14965258416837637  1.0000
  H   H34       1.0  0.34616312415638517  0.5539993928477289  0.14965258456421993  1.0000
  H   H35       1.0  0.15383687582812203  0.0539993938661282  0.35034741554534615  1.0000
  H   H36       1.0  0.653836875640021  0.5539993928477289  0.35034741573157185  1.0000
  H   H37       1.0  0.15383687551861777  0.9460006060617999  0.8503474154761415  1.0000
  H   H38       1.0  0.6538368758126293  0.44600060708019923  0.8503474156549123  1.0000
  H   H39       1.0  0.8461631246230049  0.9460006060617999  0.6496525846663314  1.0000
  H   H40       1.0  0.3461631243289934  0.44600060708019923  0.6496525844875604  1.0000
  H   H41       1.0  0.7812896826610858  0.24992203618766115  0.07527214788598025  1.0000
  H   H42       1.0  0.28128968236707436  0.7499220371339885  0.07527214770720934  1.0000
  H   H43       1.0  0.21871031761743284  0.24992203618766115  0.4247278524023568  1.0000
  H   H44       1.0  0.7187103171865632  0.7499220371339885  0.424727852013968  1.0000
  H   H45       1.0  0.21871031730792853  0.750077963740267  0.9247278523331519  1.0000
  H   H46       1.0  0.7187103173591715  0.2500779627939396  0.9247278519373083  1.0000
  H   H47       1.0  0.7812896823515816  0.750077963740267  0.5752721478167755  1.0000
  H   H48       1.0  0.2812896825396826  0.2500779627939396  0.5752721476305499  1.0000
  H   H49       1.0  0.19411653578970628  0.739962012230695  0.17683049649107646  1.0000
  H   H50       1.0  0.6941165358409492  0.23996201128436762  0.1768304960952329  1.0000
  H   H51       1.0  0.8058834640067  0.739962012230695  0.3231695038047154  1.0000
  H   H52       1.0  0.30588346419480095  0.23996201128436762  0.3231695036184897  1.0000
  H   H53       1.0  0.8058834641793082  0.26003798769723313  0.8231695037280559  1.0000
  H   H54       1.0  0.3058834638852967  0.7600379886435605  0.823169503549285  1.0000
  H   H55       1.0  0.1941165359623145  0.26003798769723313  0.6768304964144168  1.0000
  H   H56       1.0  0.6941165360135574  0.7600379886435605  0.6768304960185733  1.0000
  H   H57       1.0  0.12916936702695603  0.5162608887066467  0.18067716988062774  1.0000
  H   H58       1.0  0.6291693673209675  0.016260887760319198  0.1806771700593986  1.0000
  H   H59       1.0  0.8708306325266816  0.5162608887066467  0.3193228298405496  1.0000
  H   H60       1.0  0.37083063295755114  0.016260887760319198  0.3193228302289384  1.0000
  H   H61       1.0  0.8708306326992898  0.4837391112212815  0.81932282976389  1.0000
  H   H62       1.0  0.3708306326480469  0.983739112167609  0.8193228301597336  1.0000
  H   H63       1.0  0.1291693671995643  0.4837391112212815  0.6806771698039682  1.0000
  H   H64       1.0  0.6291693670114633  0.983739112167609  0.6806771699901939  1.0000
  H   H65       1.0  0.01636235026033618  0.1775566206163083  0.10084731056195698  1.0000
  H   H66       1.0  0.5163623498294666  0.6775566215626357  0.1008473101735682  1.0000
  H   H67       1.0  0.9836376500181826  0.1775566206163083  0.39915268972638  1.0000
  H   H68       1.0  0.48363764972417106  0.6775566215626357  0.39915268954760913  1.0000
  H   H69       1.0  0.9836376501907907  0.8224433793116199  0.8991526896497204  1.0000
  H   H70       1.0  0.48363764989677926  0.3224433783652924  0.8991526894709496  1.0000
  H   H71       1.0  0.01636234995083194  0.8224433793116199  0.6008473104927522  1.0000
  H   H72       1.0  0.5163623500020748  0.3224433783652924  0.6008473100969086  1.0000
  C   C1        1.0  0.9755560929303332  0.4774699492298015  0.1467093590395219  1.0000
  C   C2        1.0  0.4755560926363217  0.977469950176129  0.146709358860751  1.0000
  C   C3        1.0  0.024443907348185526  0.4774699492298015  0.35329064124881515  1.0000
  C   C4        1.0  0.5244439071600845  0.977469950176129  0.35329064143504074  1.0000
  C   C5        1.0  0.024443907038681247  0.5225300506981266  0.8532906411796103  1.0000
  C   C6        1.0  0.5244439073326927  0.0225300517165259  0.8532906413583812  1.0000
  C   C7        1.0  0.975556092620829  0.5225300506981266  0.6467093589703171  1.0000
  C   C8        1.0  0.4755560928089299  0.0225300517165259  0.6467093587840914  1.0000
  C   C9        1.0  0.9269292012834923  0.6808764674463251  0.13393426625038354  1.0000
  C   C10       1.0  0.4269292009894808  0.1808764664999977  0.13393426607161263  1.0000
  C   C11       1.0  0.07307079899502644  0.6808764674463251  0.3660657340379535  1.0000
  C   C12       1.0  0.5730707990462692  0.1808764664999977  0.36606573364210987  1.0000
  C   C13       1.0  0.07307079916763468  0.319123532481603  0.8660657339612939  1.0000
  C   C14       1.0  0.5730707989795337  0.8191235334279304  0.8660657341475196  1.0000
  C   C15       1.0  0.9269292009739879  0.319123532481603  0.6339342661811788  1.0000
  C   C16       1.0  0.42692920116208893  0.8191235334279304  0.6339342659949531  1.0000
  C   C17       1.0  0.8777982976689362  0.7394555312250287  0.058184681153237744  1.0000
  C   C18       1.0  0.3777982978570374  0.23945553027870123  0.058184680967012084  1.0000
  C   C19       1.0  0.12220170212746985  0.7394555312250287  0.44181531914255406  1.0000
  C   C20       1.0  0.6222017021787127  0.23945553027870123  0.44181531874671054  1.0000
  C   C21       1.0  0.12220170230007804  0.2605444687028995  0.9418153190658944  1.0000
  C   C22       1.0  0.6222017018692085  0.760544469649227  0.9418153186775057  1.0000
  C   C23       1.0  0.8777982978415446  0.2605444687028995  0.5581846810765781  1.0000
  C   C24       1.0  0.3777982975475331  0.760544469649227  0.5581846808978073  1.0000
  C   C25       1.0  0.8792154375668897  0.5910199131522806  0.9980433176670149  1.0000
  C   C26       1.0  0.3792154372728781  0.0910199122059532  0.9980433174882439  1.0000
  C   C27       1.0  0.12078456257473306  0.5910199131522806  0.5019566824754579  1.0000
  C   C28       1.0  0.620784562625976  0.0910199122059532  0.5019566820796143  1.0000
  C   C29       1.0  0.12078456240212482  0.40898008677564757  0.001956682552117398  1.0000
  C   C30       1.0  0.6207845624533677  0.908980087721975  0.00195668215627385  1.0000
  C   C31       1.0  0.8792154373942814  0.40898008677564757  0.49804331774367433  1.0000
  C   C32       1.0  0.3792154375823824  0.908980087721975  0.4980433175574487  1.0000
  C   C33       1.0  0.9287322856507836  0.38876207240965155  0.014304778874896168  1.0000
  C   C34       1.0  0.4287322853567722  0.8887620713912524  0.014304778696125273  1.0000
  C   C35       1.0  0.07126771462773504  0.38876207240965155  0.48569522141344085  1.0000
  C   C36       1.0  0.5712677146789779  0.8887620713912524  0.48569522101759727  1.0000
  C   C37       1.0  0.07126771480034327  0.6112379275182765  0.9856952213367813  1.0000
  C   C38       1.0  0.5712677146122422  0.11123792853667587  0.985695221523007  1.0000
  C   C39       1.0  0.9287322853412794  0.6112379275182765  0.5143047788056914  1.0000
  C   C40       1.0  0.42873228552938036  0.11123792853667587  0.5143047786194657  1.0000
  C   C41       1.0  0.8236561989991336  0.9601435498590323  0.036410296934626295  1.0000
  C   C42       1.0  0.3236561991872345  0.4601435489127048  0.03641029674840063  1.0000
  C   C43       1.0  0.1763438005545042  0.9601435498590323  0.46358970278655104  1.0000
  C   C44       1.0  0.6763438008485156  0.4601435489127048  0.463589702965322  1.0000
  C   C45       1.0  0.17634380096988098  0.03985645006889589  0.9635897032845059  1.0000
  C   C46       1.0  0.676343801021124  0.5398564510152233  0.9635897028886624  1.0000
  C   C47       1.0  0.8236561991717417  0.03985645006889589  0.5364102968579668  1.0000
  C   C48       1.0  0.3236561991204988  0.5398564510152233  0.5364102972538103  1.0000
  C   C49       1.0  0.15891206741896474  0.6988694130898284  0.20453883040691095  1.0000
  C   C50       1.0  0.6589120677129763  0.19886941214350096  0.2045388305856818  1.0000
  C   C51       1.0  0.8410879323774414  0.6988694130898284  0.2954611698888809  1.0000
  C   C52       1.0  0.3410879325655425  0.19886941214350096  0.2954611697026552  1.0000
  C   C53       1.0  0.8410879325500498  0.3011305868380998  0.7954611698122213  1.0000
  C   C54       1.0  0.3410879322560383  0.8011305877844273  0.7954611696334505  1.0000
  C   C55       1.0  0.15891206759157298  0.3011305868380998  0.7045388303302513  1.0000
  C   C56       1.0  0.658912067403472  0.8011305877844273  0.7045388305164771  1.0000
  C   C57       1.0  0.10564909092664843  0.9255497735448093  0.1886172105088179  1.0000
  C   C58       1.0  0.6056490912206599  0.42554977259848187  0.1886172106875888  1.0000
  C   C59       1.0  0.8943509086269891  0.9255497735448093  0.3113827892123594  1.0000
  C   C60       1.0  0.3943509090578588  0.42554977259848187  0.31138278960074817  1.0000
  C   C61       1.0  0.8943509087995974  0.07445022834784555  0.8113827891356998  1.0000
  C   C62       1.0  0.3943509087483545  0.5744502273294463  0.8113827895315434  1.0000
  C   C63       1.0  0.10564909109925667  0.07445022834784555  0.6886172104321584  1.0000
  C   C64       1.0  0.6056490913932682  0.5744502273294463  0.6886172106109293  1.0000
  N   N1        1.0  0.9754750076177253  0.33823902866314537  0.08767414486179112  1.0000
  N   N2        1.0  0.4754750080485948  0.838239027644746  0.08767414525017989  1.0000
  N   N3        1.0  0.024524991935912385  0.33823902866314537  0.4123258548593863  1.0000
  N   N4        1.0  0.5245249922299239  0.838239027644746  0.4123258550381571  1.0000
  N   N5        1.0  0.024524992108520577  0.6617609712647827  0.9123258547827267  1.0000
  N   N6        1.0  0.5245249924025321  0.161760972283182  0.9123258549614975  1.0000
  N   N7        1.0  0.975475008033102  0.6617609712647827  0.587674145359746  1.0000
  N   N8        1.0  0.4754750077390905  0.161760972283182  0.587674145180975  1.0000
  N   N9        1.0  0.8193458928510556  0.10081013560290729  0.09229107371844499  1.0000
  N   N10       1.0  0.31934589303915667  0.600810134584508  0.09229107353221933  1.0000
  N   N11       1.0  0.18065410694535056  0.10081013560290729  0.4077089265773468  1.0000
  N   N12       1.0  0.6806541069965936  0.600810134584508  0.40770892618150323  1.0000
  N   N13       1.0  0.18065410711795882  0.8991898643250209  0.9077089265006872  1.0000
  N   N14       1.0  0.6806541066870893  0.3991898653434201  0.9077089261122985  1.0000
  N   N15       1.0  0.8193458930236639  0.8991898643250209  0.5922910736417855  1.0000
  N   N16       1.0  0.3193458927296523  0.3991898653434201  0.5922910734630145  1.0000
  O   O1        1.0  0.7865726358536949  0.00555784840214665  0.9661740650261433  1.0000
  O   O2        1.0  0.2865726358024519  0.505557849348474  0.9661740654219869  1.0000
  O   O3        1.0  0.21342736404515933  0.00555784840214665  0.533825934541715  1.0000
  O   O4        1.0  0.7134273643391709  0.505557849348474  0.5338259347204859  1.0000
  O   O5        1.0  0.21342736387255115  0.9944421515257814  0.033825934618374555  1.0000
  O   O6        1.0  0.7134273641665626  0.49444215057945406  0.03382593479714545  1.0000
  O   O7        1.0  0.7865726356810865  0.9944421515257814  0.4661740651028028  1.0000
  O   O8        1.0  0.28657263611195616  0.49444215057945406  0.4661740654911916  1.0000
  O   O9        1.0  0.06995577777437564  0.9738093401262722  0.1163441845027616  1.0000
  O   O10       1.0  0.569955777343506  0.4738093391799448  0.1163441841143728  1.0000
  O   O11       1.0  0.9300442225041431  0.9738093401262722  0.38365581578557545  1.0000
  O   O12       1.0  0.43004422221013155  0.4738093391799448  0.38365581560680456  1.0000
  O   O13       1.0  0.9300442226767512  0.026190659801655948  0.8836558157089158  1.0000
  O   O14       1.0  0.4300442223827398  0.5261906607479834  0.883655815530145  1.0000
  O   O15       1.0  0.06995577746487137  0.026190659801655948  0.6163441844335568  1.0000
  O   O16       1.0  0.5699557777588828  0.5261906607479834  0.6163441846123277  1.0000
  O   O17       1.0  0.09811593437268498  0.044485507316904864  0.24147762432095998  1.0000
  O   O18       1.0  0.5981159346666964  0.5444855062985056  0.2414776244997309  1.0000
  O   O19       1.0  0.9018840659058336  0.044485507316904864  0.258522375967377  1.0000
  O   O20       1.0  0.4018840656118222  0.5444855062985056  0.25852237578860615  1.0000
  O   O21       1.0  0.9018840655963294  0.9555144926110233  0.7585223758981722  1.0000
  O   O22       1.0  0.4018840657844305  0.45551449362942253  0.7585223757119466  1.0000
  O   O23       1.0  0.09811593454529322  0.9555144926110233  0.7414776242443004  1.0000
  O   O24       1.0  0.5981159343571922  0.45551449362942253  0.7414776244305261  1.0000
  Cl  Cl1       1.0  0.2147091004723231  0.6436874443197926  0.303648893367016  1.0000
  Cl  Cl2       1.0  0.7147091007663346  0.1436874453381919  0.30364889354578695  1.0000
  Cl  Cl3       1.0  0.7852908998061955  0.6436874443197926  0.196351106921321  1.0000
  Cl  Cl4       1.0  0.2852908995121841  0.1436874453381919  0.19635110674255007  1.0000
  Cl  Cl5       1.0  0.7852908994966913  0.3563125556081355  0.6963511068521162  1.0000
  Cl  Cl6       1.0  0.2852908996847924  0.8563125545897363  0.6963511066658906  1.0000
  Cl  Cl7       1.0  0.21470910064493134  0.3563125556081355  0.8036488932903564  1.0000
  Cl  Cl8       1.0  0.7147091004568303  0.8563125545897363  0.8036488934765822  1.0000
