data_image0
_chemical_formula_structural       H40C24N4O8
_chemical_formula_sum              "H40 C24 N4 O8"
_cell_length_a       9.626113342202936
_cell_length_b       5.651064798778125
_cell_length_c       13.325372803259791
_cell_angle_alpha    90.0
_cell_angle_beta     108.44338845783285
_cell_angle_gamma    90.0

_space_group_name_H-M_alt    "P 1"
_space_group_IT_number       1

loop_
  _space_group_symop_operation_xyz
  'x, y, z'

loop_
  _atom_site_type_symbol
  _atom_site_label
  _atom_site_symmetry_multiplicity
  _atom_site_fract_x
  _atom_site_fract_y
  _atom_site_fract_z
  _atom_site_occupancy
  H   H1        1.0  0.814524052282894  0.9134570906205376  0.011039237513087706  1.0000
  H   H2        1.0  0.6854759483042354  0.41345709051242746  0.48896076284584317  1.0000
  H   H3        1.0  0.18547594761397157  0.08654290959568267  0.9889607623913345  1.0000
  H   H4        1.0  0.3145240515786798  0.5865429097037927  0.511039237805778  1.0000
  H   H5        1.0  0.6204348804091615  0.4552456451315605  0.9582356002733821  1.0000
  H   H6        1.0  0.8795651194221865  0.9552456452396706  0.54176440033045  1.0000
  H   H7        1.0  0.3795651194877041  0.5447543550846596  0.04176439963104004  1.0000
  H   H8        1.0  0.12043488046072869  0.04475435497654959  0.4582356003211711  1.0000
  H   H9        1.0  0.4813168459619588  0.24397106723994777  0.9403216097214528  1.0000
  H   H10       1.0  0.018683153230692633  0.7439710673480578  0.5596783904756597  1.0000
  H   H11       1.0  0.5186831539209565  0.7560289329762724  0.05967839093016833  1.0000
  H   H12       1.0  0.981316846666173  0.2560289328681623  0.4403216094287625  1.0000
  H   H13       1.0  0.43146218718645085  0.25883300972168316  0.7428105746082819  1.0000
  H   H14       1.0  0.06853781311515025  0.7588330098297933  0.7571894251014433  1.0000
  H   H15       1.0  0.5685378127104147  0.741166990494537  0.25718942529614014  1.0000
  H   H16       1.0  0.9314621878767145  0.24116699038642694  0.2428105750627906  1.0000
  H   H17       1.0  0.5703209797789277  0.4695566525044518  0.7597353886965917  1.0000
  H   H18       1.0  0.9296790211613699  0.9695566526125619  0.7402646114198531  1.0000
  H   H19       1.0  0.4296790212129372  0.5304433477117684  0.24026461146764214  1.0000
  H   H20       1.0  0.0703209798304949  0.03044334760365833  0.25973538874438074  1.0000
  H   H21       1.0  0.3172730479198791  0.6544201653464705  0.7110783556054633  1.0000
  H   H22       1.0  0.18272695238172193  0.15442016523836039  0.7889216441042619  1.0000
  H   H23       1.0  0.6827269530719857  0.34557983486974975  0.2889216445587706  1.0000
  H   H24       1.0  0.8172730475151435  0.8455798349778597  0.21107835580016013  1.0000
  H   H25       1.0  0.4307475685762087  0.7588050681930182  0.8360807820196389  1.0000
  H   H26       1.0  0.06925243172539235  0.25880506808490805  0.6639192176900863  1.0000
  H   H27       1.0  0.5692524324156562  0.24119493202320205  0.16391921814459495  1.0000
  H   H28       1.0  0.9307475681714731  0.7411949321313122  0.3360807822143358  1.0000
  H   H29       1.0  0.295579776520444  0.5422752240715046  0.828913593724493  1.0000
  H   H30       1.0  0.20442022378115712  0.042275223963394476  0.6710864059852323  1.0000
  H   H31       1.0  0.7044202233764216  0.4577247761447156  0.17108640617992898  1.0000
  H   H32       1.0  0.7955797761157084  0.9577247762528258  0.32891359391918995  1.0000
  H   H33       1.0  0.02228475065742061  0.6646587561360346  0.1729439059248157  1.0000
  H   H34       1.0  0.47771524929101217  0.16465875779750258  0.3270560940273954  1.0000
  H   H35       1.0  0.9777152492394449  0.3353412423106075  0.8270560939796064  1.0000
  H   H36       1.0  0.5222847517008528  0.8353412424187175  0.6729439061368386  1.0000
  H   H37       1.0  0.8286140534270585  0.6886791336814045  0.8460222321250574  1.0000
  H   H38       1.0  0.6713859464182398  0.18867913357329438  0.6539777677315756  1.0000
  H   H39       1.0  0.1713859464698071  0.3113208665348157  0.1539777677793646  1.0000
  H   H40       1.0  0.32861405347862566  0.8113208666429258  0.34602223217284644  1.0000
  C   C1        1.0  0.6707040376547719  0.11532395985636396  0.911402610099003  1.0000
  C   C2        1.0  0.8292959621905264  0.6153239599644741  0.5885973897576301  1.0000
  C   C3        1.0  0.3292959622420935  0.8846760403598563  0.08859738980541908  1.0000
  C   C4        1.0  0.17070403770633924  0.3846760402517461  0.41140261014679197  1.0000
  C   C5        1.0  0.5625656967298703  0.3127370208853605  0.9049632062557509  1.0000
  C   C6        1.0  0.9374343031154281  0.8127370209934706  0.5950367936008824  1.0000
  C   C7        1.0  0.4374343031669953  0.6872629793308598  0.09503679364867129  1.0000
  C   C8        1.0  0.0625656967814375  0.18726297922274965  0.40496320630353977  1.0000
  C   C9        1.0  0.4870296201941101  0.40558281166685106  0.7937641047953886  1.0000
  C   C10       1.0  0.012970380107490891  0.9055828117749611  0.7062358949143367  1.0000
  C   C11       1.0  0.5129703797027554  0.5944171885493691  0.2062358951090335  1.0000
  C   C12       1.0  0.9870296197893746  0.09441718844125906  0.29376410499008543  1.0000
  C   C13       1.0  0.37734747108013084  0.6010687102250943  0.792464983665585  1.0000
  C   C14       1.0  0.12265252920751991  0.10106871011698419  0.7075350167913393  1.0000
  C   C15       1.0  0.6226525288167347  0.39893128999112587  0.20753501623883716  1.0000
  C   C16       1.0  0.8773474706753953  0.8989312900992359  0.29246498386028175  1.0000
  C   C17       1.0  0.011632985106918523  0.5917971902787421  0.09528954399938104  1.0000
  C   C18       1.0  0.48836701484151435  0.09179719017063202  0.40471045595283  1.0000
  C   C19       1.0  0.988367014789947  0.4082028099374781  0.9047104559050411  1.0000
  C   C20       1.0  0.511632985041401  0.9082028100455882  0.595289544698791  1.0000
  C   C21       1.0  0.9050524129637222  0.6027706531938034  0.9146231108172567  1.0000
  C   C22       1.0  0.5949475868815759  0.10277065308569332  0.5853768890393765  1.0000
  C   C23       1.0  0.09494758693314319  0.39722934702241675  0.08537688908716547  1.0000
  C   C24       1.0  0.4050524130152896  0.8972293471305269  0.41462311086504555  1.0000
  N   N1        1.0  0.9170427581048296  0.6933728225603101  0.010010541273184362  1.0000
  N   N2        1.0  0.5829572424822999  0.19337282245220005  0.48998945908574637  1.0000
  N   N3        1.0  0.08295724179203601  0.3066271776559101  0.9899894586312377  1.0000
  N   N4        1.0  0.41704275741456576  0.8066271777640203  0.5100105408186757  1.0000
  O   O1        1.0  0.7432161393276412  0.052893904183266435  0.010964934940520253  1.0000
  O   O2        1.0  0.7567838612734386  0.5528939042913765  0.4890350646712115  1.0000
  O   O3        1.0  0.25678386056922436  0.9471060960329537  0.9890350649639018  1.0000
  O   O4        1.0  0.24321613862342703  0.4471060959248437  0.5109649352332105  1.0000
  O   O5        1.0  0.6893723776887166  0.019661397268710096  0.8333869733940303  1.0000
  O   O6        1.0  0.8106276221565818  0.5196613973768203  0.6666130264626029  1.0000
  O   O7        1.0  0.3106276222081489  0.9803386029475102  0.16661302651039175  1.0000
  O   O8        1.0  0.18937237774028384  0.4803386028394  0.3333869734418193  1.0000
