data_image0
_chemical_formula_structural       H88C116N4O4
_chemical_formula_sum              "H88 C116 N4 O4"
_cell_length_a       11.553586449533102
_cell_length_b       15.483904819253851
_cell_length_c       12.210788664519919
_cell_angle_alpha    90.0
_cell_angle_beta     112.877887337108
_cell_angle_gamma    90.0

_space_group_name_H-M_alt    "P 1"
_space_group_IT_number       1

loop_
  _space_group_symop_operation_xyz
  'x, y, z'

loop_
  _atom_site_type_symbol
  _atom_site_label
  _atom_site_symmetry_multiplicity
  _atom_site_fract_x
  _atom_site_fract_y
  _atom_site_fract_z
  _atom_site_occupancy
  H   H1        1.0  0.8222061781606016  0.20159410345370618  0.5195506251854005  1.0000
  H   H2        1.0  0.6777938226642092  0.7015941034778006  0.9804493755453779  1.0000
  H   H3        1.0  0.1777938227024134  0.7984058959486506  0.48044937541815314  1.0000
  H   H4        1.0  0.32220617819880565  0.2984058959245563  0.01955062505817561  1.0000
  H   H5        1.0  0.9462712675132261  0.24882607294312092  0.4017795894733264  1.0000
  H   H6        1.0  0.5537287323858546  0.7488260729672153  0.09822041036093097  1.0000
  H   H7        1.0  0.05372873241442909  0.7511739271050679  0.5982204099636778  1.0000
  H   H8        1.0  0.446271267537737  0.25117392708097347  0.9017795898935188  1.0000
  H   H9        1.0  0.003719762766841075  0.14367411747673106  0.2788855028331459  1.0000
  H   H10       1.0  0.4962802371949547  0.6436741175008254  0.22111449729407895  1.0000
  H   H11       1.0  0.9962802371567506  0.8563258825714577  0.7211144974213038  1.0000
  H   H12       1.0  0.5037197627286369  0.3563258825473633  0.7788855029603707  1.0000
  H   H13       1.0  0.939622418076387  0.9896168808107154  0.27113428324505506  1.0000
  H   H14       1.0  0.5603775827621169  0.4896168807866211  0.22886571693830632  1.0000
  H   H15       1.0  0.060377581851268076  0.010383118591641366  0.7288657161919493  1.0000
  H   H16       1.0  0.439622418100898  0.5103831186157357  0.7711342836652473  1.0000
  H   H17       1.0  0.8531620946293389  0.8377136730956125  0.2942052305636768  1.0000
  H   H18       1.0  0.6468379052697418  0.33771367371735017  0.20579476927058066  1.0000
  H   H19       1.0  0.1468379052942527  0.16228632630674422  0.7057947696907729  1.0000
  H   H20       1.0  0.3531620946538499  0.6622863263308387  0.794205230983869  1.0000
  H   H21       1.0  0.7491921771760541  0.7107584003174163  0.3410794547982072  1.0000
  H   H22       1.0  0.7508078227230266  0.21075840029332196  0.15892054503605021  1.0000
  H   H23       1.0  0.25080782274753755  0.2892415997307724  0.6589205454562425  1.0000
  H   H24       1.0  0.24919217720056505  0.7892415997548669  0.8410794552183994  1.0000
  H   H25       1.0  0.6352439047145004  0.7246950185360757  0.4754382315626778  1.0000
  H   H26       1.0  0.8647560951845802  0.2246950185119813  0.024561768271579618  1.0000
  H   H27       1.0  0.3647560952090912  0.2753049815121131  0.524561768691772  1.0000
  H   H28       1.0  0.1352439047430749  0.7753049815362074  0.9754382311654246  1.0000
  H   H29       1.0  0.6212114344199221  0.867965167500147  0.5640834021347158  1.0000
  H   H30       1.0  0.8787885654695289  0.36796516747605257  0.9359165974295132  1.0000
  H   H31       1.0  0.37878856550773304  0.13203483254804183  0.4359165973022883  1.0000
  H   H32       1.0  0.1212114344581263  0.6320348325721362  0.06408340200749096  1.0000
  H   H33       1.0  0.945979367303151  0.17199393118772305  0.7992712275841583  1.0000
  H   H34       1.0  0.5540206325862999  0.6719939312118174  0.7007287719800707  1.0000
  H   H35       1.0  0.05402063262450396  0.8280060688604658  0.20072877185284582  1.0000
  H   H36       1.0  0.4459793673372919  0.32800606883637135  0.299271228274379  1.0000
  H   H37       1.0  0.8007333809985369  0.8697984841170704  0.7678957268276528  1.0000
  H   H38       1.0  0.6992666188909143  0.36979848409297605  0.7321042727365763  1.0000
  H   H39       1.0  0.19926661892505493  0.13020151593111834  0.23210427342679688  1.0000
  H   H40       1.0  0.3007333810367409  0.6302015159552128  0.267895726700428  1.0000
  H   H41       1.0  0.8055267696322791  0.726422111301897  0.8622090734322998  1.0000
  H   H42       1.0  0.6944732302571719  0.22642211127780265  0.6377909261319293  1.0000
  H   H43       1.0  0.19447323029537603  0.2735778881004598  0.13779092600470452  1.0000
  H   H44       1.0  0.3055267696704833  0.7735778881245541  0.3622090733050748  1.0000
  H   H45       1.0  0.9275585769110744  0.705975184399691  0.07645245514844468  1.0000
  H   H46       1.0  0.5724414229880065  0.20597518437559656  0.4235475446858128  1.0000
  H   H47       1.0  0.07244142301658096  0.2940248156484978  0.9235475442885596  1.0000
  H   H48       1.0  0.4275585769355851  0.7940248156725922  0.5764524555686369  1.0000
  H   H49       1.0  0.5588439805295126  0.04350959514826472  0.3972591909451399  1.0000
  H   H50       1.0  0.9411560193695683  0.5435095951723591  0.10274080888911753  1.0000
  H   H51       1.0  0.4411560193981426  0.956490404899924  0.6027408084918643  1.0000
  H   H52       1.0  0.05884398055402354  0.45649040487582965  0.8972591913653322  1.0000
  H   H53       1.0  0.26530862380080084  0.9108759376034223  0.9560664142411135  1.0000
  H   H54       1.0  0.2346913761513652  0.41087593757932794  0.5439335856160828  1.0000
  H   H55       1.0  0.7346913761227908  0.08912406244476644  0.04393358601333609  1.0000
  H   H56       1.0  0.7653086237762898  0.5891240624688607  0.45606641382092133  1.0000
  H   H57       1.0  0.32481208475046314  0.8227453603408221  0.14280884265672394  1.0000
  H   H58       1.0  0.1751879152153962  0.3227453603167277  0.35719115665305534  1.0000
  H   H59       1.0  0.675187915177192  0.17725463970736668  0.8571911567802802  1.0000
  H   H60       1.0  0.824812084712259  0.677254639731461  0.6428088427839488  1.0000
  H   H61       1.0  0.45751299967218156  0.8935352058478173  0.33689876558125387  1.0000
  H   H62       1.0  0.042487000289614336  0.393535205823723  0.16310123454597097  1.0000
  H   H63       1.0  0.5424870002514102  0.1064647942003714  0.6631012346731958  1.0000
  H   H64       1.0  0.9575129996339773  0.6064647935786339  0.8368987657084789  1.0000
  H   H65       1.0  0.2760047612967962  0.03864960402338862  0.8577162817613914  1.0000
  H   H66       1.0  0.22399523865130636  0.538649604047483  0.6422837189132506  1.0000
  H   H67       1.0  0.7239952386267955  0.9613503960248002  0.1422837184930584  1.0000
  H   H68       1.0  0.7760047612722852  0.46135039600070576  0.35771628134119904  1.0000
  H   H69       1.0  0.41739285867878156  0.09791877034239366  0.9202610829356171  1.0000
  H   H70       1.0  0.08260714127338455  0.597918770366488  0.5797389169215793  1.0000
  H   H71       1.0  0.5826071412488736  0.9020812297057951  0.079738916501387  1.0000
  H   H72       1.0  0.9173928586502073  0.40208122968170074  0.42026108333287054  1.0000
  H   H73       1.0  0.28167740048391277  0.13311080144571183  0.9418923913911548  1.0000
  H   H74       1.0  0.2183225994682533  0.6331108014698063  0.5581076084660417  1.0000
  H   H75       1.0  0.7183225994437423  0.8668891986024769  0.05810760804584934  1.0000
  H   H76       1.0  0.7816774004553384  0.36688919857838254  0.44189239178840806  1.0000
  H   H77       1.0  0.5902047491654353  0.14730007169534565  0.2558764825370826  1.0000
  H   H78       1.0  0.9097952507336454  0.64730007171944  0.24412351729717482  1.0000
  H   H79       1.0  0.4097952507581565  0.8526999283528431  0.7441235177173671  1.0000
  H   H80       1.0  0.0902047491940097  0.3526999283287487  0.7558764821398294  1.0000
  H   H81       1.0  0.4381716367446314  0.19179547825088658  0.17685397277792256  1.0000
  H   H82       1.0  0.0618283632212279  0.691795478274981  0.32314602653185676  1.0000
  H   H83       1.0  0.5618283631830238  0.8082045217973022  0.8231460266590815  1.0000
  H   H84       1.0  0.9381716376458504  0.3082045217732078  0.6768539732542512  1.0000
  H   H85       1.0  0.5317942381831131  0.1609722191588691  0.09858006977583321  1.0000
  H   H86       1.0  0.9682057617159676  0.6609722191829634  0.4014199300584242  1.0000
  H   H87       1.0  0.4682057617404786  0.8390277808893197  0.9014199304786166  1.0000
  H   H88       1.0  0.03179423821168751  0.3390277808652253  0.5985800693785799  1.0000
  C   C1        1.0  0.8469440802471424  0.15553413419368023  0.4646431394997252  1.0000
  C   C2        1.0  0.6530559196519383  0.6555341342177745  0.035356860334532315  1.0000
  C   C3        1.0  0.15305591967644933  0.8444658658545086  0.5353568607547246  1.0000
  C   C4        1.0  0.34694408027571677  0.34446586583041416  0.9646431391024719  1.0000
  C   C5        1.0  0.916593132087891  0.1817539827873739  0.39880620568633407  1.0000
  C   C6        1.0  0.5834068678111897  0.6817539828114683  0.10119379414792341  1.0000
  C   C7        1.0  0.08340686783570057  0.8182460172608149  0.6011937945681157  1.0000
  C   C8        1.0  0.41659313211646554  0.31824601723672047  0.8988062052890808  1.0000
  C   C9        1.0  0.9487698354299348  0.12235410396247157  0.3289640889093664  1.0000
  C   C10       1.0  0.5512301654085692  0.622354103986566  0.1710359112739948  1.0000
  C   C11       1.0  0.051230165433080094  0.8776458960857172  0.6710359116941872  1.0000
  C   C12       1.0  0.44876983545850924  0.3776458960616228  0.8289640885121132  1.0000
  C   C13       1.0  0.9120552157403011  0.03590162148948084  0.3235843417374633  1.0000
  C   C14       1.0  0.5879447841587797  0.5359016215135752  0.17641565809679416  1.0000
  C   C15       1.0  0.08794478418329064  0.964098378558708  0.6764156585169864  1.0000
  C   C16       1.0  0.41205521576481197  0.4640983785346135  0.8235843421576555  1.0000
  C   C17       1.0  0.8426866280420136  0.00965924369504147  0.38905514786088763  1.0000
  C   C18       1.0  0.6573133718570671  0.5096592430733039  0.11094485197336978  1.0000
  C   C19       1.0  0.15731337188157804  0.9903407563531473  0.6109448523935621  1.0000
  C   C20       1.0  0.3426866280705881  0.4903407563290529  0.8890551474636343  1.0000
  C   C21       1.0  0.8099880491297434  0.06973413958585882  0.45859988224455916  1.0000
  C   C22       1.0  0.6900119507693373  0.5697341396099532  0.041400117589698256  1.0000
  C   C23       1.0  0.19001195079791175  0.93026586046233  0.541400117192445  1.0000
  C   C24       1.0  0.3099880491542544  0.43026586043823556  0.9585998826647515  1.0000
  C   C25       1.0  0.7936015699258847  0.9245711399748755  0.40160539323520683  1.0000
  C   C26       1.0  0.7063984299731959  0.4245711399507811  0.0983946065990506  1.0000
  C   C27       1.0  0.2063984300017704  0.07542886007331329  0.5983946062017973  1.0000
  C   C28       1.0  0.2936015699503957  0.5754288600974077  0.9016053936553992  1.0000
  C   C29       1.0  0.8024856951854767  0.8446466774800436  0.3527012170874413  1.0000
  C   C30       1.0  0.6975143047136041  0.34464667745594924  0.14729878274681613  1.0000
  C   C31       1.0  0.19751430474217846  0.1553533225681451  0.6472987823495628  1.0000
  C   C32       1.0  0.3024856952099876  0.6553533219464076  0.8527012175076336  1.0000
  C   C33       1.0  0.7452314264862537  0.7731802435980687  0.38046263297517585  1.0000
  C   C34       1.0  0.7547685734087635  0.27318024357397425  0.11953736767652705  1.0000
  C   C35       1.0  0.254768573437338  0.22681975645012017  0.6195373672792739  1.0000
  C   C36       1.0  0.2452314265148281  0.7268197564742146  0.8804626325779227  1.0000
  C   C37       1.0  0.68095442622335  0.7809564984514488  0.45629303461603443  1.0000
  C   C38       1.0  0.8190455736716672  0.28095649842735443  0.0437069660356686  1.0000
  C   C39       1.0  0.31904557370024167  0.21904350159673994  0.5437069656384154  1.0000
  C   C40       1.0  0.18095442625192446  0.7190435016208343  0.9562930342187811  1.0000
  C   C41       1.0  0.6729341946863318  0.8609859861333368  0.5064807856792105  1.0000
  C   C42       1.0  0.827065805203119  0.3609859861092423  0.9935192138850184  1.0000
  C   C43       1.0  0.32706580524132334  0.13901401391485207  0.49351921375779356  1.0000
  C   C44       1.0  0.1729341947204725  0.6390140139389465  0.0064807863694312995  1.0000
  C   C45       1.0  0.7287180884492273  0.9320400841042784  0.4776850487451769  1.0000
  C   C46       1.0  0.7712819114498533  0.4320400840801841  0.0223149510890805  1.0000
  C   C47       1.0  0.27128191147842784  0.06795991594391035  0.5223149506918272  1.0000
  C   C48       1.0  0.22871808847373823  0.5679599159680048  0.9776850491653692  1.0000
  C   C49       1.0  0.7301607774777699  0.026213452920176187  0.5184241259138465  1.0000
  C   C50       1.0  0.7698392224116811  0.5262134529442706  0.9815758736503826  1.0000
  C   C51       1.0  0.2698392224498853  0.9737865464821807  0.48157587352315767  1.0000
  C   C52       1.0  0.23016077751597405  0.4737865471039182  0.018424125786621642  1.0000
  C   C53       1.0  0.7931040751558777  0.029398544185957852  0.6476902568425505  1.0000
  C   C54       1.0  0.7068959247295097  0.5293985442100523  0.852309743539124  1.0000
  C   C55       1.0  0.20689592476771396  0.970601455862231  0.35230974341189913  1.0000
  C   C56       1.0  0.2931040751940819  0.47060145583813656  0.14769025671532576  1.0000
  C   C57       1.0  0.8533972402586188  0.023861503562110135  0.7543529598469122  1.0000
  C   C58       1.0  0.646602759630832  0.5238615035862045  0.7456470397173168  1.0000
  C   C59       1.0  0.14660275966903624  0.9761384964860786  0.2456470395900919  1.0000
  C   C60       1.0  0.3533972402927596  0.47613849646198425  0.25435296053713297  1.0000
  C   C61       1.0  0.9258922504973477  0.012482010982118234  0.8766719935973524  1.0000
  C   C62       1.0  0.5741077493880398  0.5124820110062126  0.6233280067843222  1.0000
  C   C63       1.0  0.07410774942624396  0.9875179884202385  0.12332800665709741  1.0000
  C   C64       1.0  0.42589225053555185  0.4875179890419762  0.3766719934701274  1.0000
  C   C65       1.0  0.999371897680434  0.08163776093664428  0.9455694808837156  1.0000
  C   C66       1.0  0.500628102209017  0.5816377609607387  0.5544305186805134  1.0000
  C   C67       1.0  0.0006281022472211229  0.9183622391115445  0.05443051855328848  1.0000
  C   C68       1.0  0.4993718977145748  0.4183622390874501  0.44556948157393644  1.0000
  C   C69       1.0  0.0017861183653838696  0.16372938800602668  0.8940409726750765  1.0000
  C   C70       1.0  0.4982138815867822  0.6637293880301212  0.6059590271821199  1.0000
  C   C71       1.0  0.9982138815582078  0.8362706113963301  0.10595902757937323  1.0000
  C   C72       1.0  0.5017861183408729  0.33627061137223574  0.3940409722548842  1.0000
  C   C73       1.0  0.9265605397124231  0.9306889591623332  0.9299406897760383  1.0000
  C   C74       1.0  0.573439460177028  0.4306889591382388  0.5700593097881907  1.0000
  C   C75       1.0  0.0734394602111686  0.06931104088585559  0.07005931047841144  1.0000
  C   C76       1.0  0.4265605397506272  0.56931104090995  0.4299406896488134  1.0000
  C   C77       1.0  0.8557619817008414  0.8598605839687398  0.8624169472731188  1.0000
  C   C78       1.0  0.6442380181886096  0.35986058394464543  0.6375830522911102  1.0000
  C   C79       1.0  0.14423801822275023  0.14013941607944894  0.13758305298133094  1.0000
  C   C80       1.0  0.3557619817390456  0.6401394161035433  0.36241694714589395  1.0000
  C   C81       1.0  0.8576394916518042  0.7810282426279319  0.9148788334502016  1.0000
  C   C82       1.0  0.6423605082376468  0.2810282426038376  0.5851211661140274  1.0000
  C   C83       1.0  0.14236050827585095  0.21897175742025685  0.0851211659868026  1.0000
  C   C84       1.0  0.35763949169000836  0.7189717574443513  0.41487883332297676  1.0000
  C   C85       1.0  0.9286020832627135  0.7693062679633559  0.03828740094566333  1.0000
  C   C86       1.0  0.5713979166363672  0.2693062679392615  0.4617125988885942  1.0000
  C   C87       1.0  0.07139791666087815  0.23069373208483285  0.9617125993087864  1.0000
  C   C88       1.0  0.42860208329128796  0.7306937321089272  0.5382874005484101  1.0000
  C   C89       1.0  0.4506006167009561  0.05424614267555771  0.15857683169154257  1.0000
  C   C90       1.0  0.049399383260839765  0.5542461426996521  0.34142316843568227  1.0000
  C   C91       1.0  0.5493993832226356  0.9457538573726311  0.8414231685629072  1.0000
  C   C92       1.0  0.9506006166627519  0.4457538573485367  0.6585768318187674  1.0000
  C   C93       1.0  0.37138413524428837  0.021909486267195213  0.04632840184946817  1.0000
  C   C94       1.0  0.1286158647175075  0.5219094862912895  0.45367159827775666  1.0000
  C   C95       1.0  0.6286158646793033  0.9780905137809935  0.9536715984049815  1.0000
  C   C96       1.0  0.8713841352101478  0.47809051375689915  0.5463284011592475  1.0000
  C   C97       1.0  0.3266004752391994  0.9375300661851742  0.04175250958745193  1.0000
  C   C98       1.0  0.17339952472259643  0.4375300661610798  0.45824749053977293  1.0000
  C   C99       1.0  0.6733995246843922  0.06246993386301453  0.9582474906669978  1.0000
  C   C100      1.0  0.8266004752009951  0.5624699338871089  0.5417525097146768  1.0000
  C   C101      1.0  0.3588145255103885  0.888587657351863  0.145115314425116  1.0000
  C   C102      1.0  0.14118547445140736  0.3885876573277686  0.35488468570210885  1.0000
  C   C103      1.0  0.6411854753566899  0.11141234269632577  0.854884685360992  1.0000
  C   C104      1.0  0.8588145254721843  0.6114123427204202  0.6451153145523408  1.0000
  C   C105      1.0  0.4334898104190068  0.9268554545849742  0.25229341291483653  1.0000
  C   C106      1.0  0.06651018954278898  0.4268554545608798  0.24770658721238833  1.0000
  C   C107      1.0  0.5665101895045848  0.07314454546321454  0.7477065873396131  1.0000
  C   C108      1.0  0.9334898103808028  0.5731445454873089  0.7522934130420614  1.0000
  C   C109      1.0  0.3348694166917114  0.07564431347727969  0.9359968180950032  1.0000
  C   C110      1.0  0.16513058325639116  0.5756443135013741  0.5640031825796389  1.0000
  C   C111      1.0  0.6651305832318803  0.924355686570909  0.06400318215944659  1.0000
  C   C112      1.0  0.8348694166672004  0.4243556865468147  0.43599681767481085  1.0000
  C   C113      1.0  0.5062325051989243  0.1431597866220169  0.1732245354153439  1.0000
  C   C114      1.0  0.9937674947001565  0.6431597866461113  0.32677546441891353  1.0000
  C   C115      1.0  0.49376749472466747  0.8568402134261719  0.8267754648391059  1.0000
  C   C116      1.0  0.006232505223435183  0.3568402134020775  0.6732245358355362  1.0000
  N   N1        1.0  0.4786466826881302  0.007298129982010926  0.2584540918759481  1.0000
  N   N2        1.0  0.021353317273665656  0.5072981300061054  0.24154590825127678  1.0000
  N   N3        1.0  0.5213533172354615  0.9927018700661778  0.7415459083785017  1.0000
  N   N4        1.0  0.9786466826499259  0.4927018700420835  0.7584540920031728  1.0000
  O   O1        1.0  0.6078637888807743  0.06317794066930595  0.4828142324318476  1.0000
  O   O2        1.0  0.892136211014243  0.5631779406934003  0.017185768219855395  1.0000
  O   O3        1.0  0.39213621104281743  0.9368220593788829  0.5171857678226021  1.0000
  O   O4        1.0  0.10786378890934867  0.43682205935478846  0.9828142320345944  1.0000
