data_image0
_chemical_formula_structural       H80C76O28
_chemical_formula_sum              "H80 C76 O28"
_cell_length_a       10.910980816949007
_cell_length_b       12.508640048644182
_cell_length_c       12.596780795800989
_cell_angle_alpha    110.03534698792808
_cell_angle_beta     94.60494870810331
_cell_angle_gamma    97.5896960829892

_space_group_name_H-M_alt    "P 1"
_space_group_IT_number       1

loop_
  _space_group_symop_operation_xyz
  'x, y, z'

loop_
  _atom_site_type_symbol
  _atom_site_label
  _atom_site_symmetry_multiplicity
  _atom_site_fract_x
  _atom_site_fract_y
  _atom_site_fract_z
  _atom_site_occupancy
  H   H1        1.0  0.3084377487338489  0.8463483197101578  0.8873557521683357  1.0000
  H   H2        1.0  0.6915622519805664  0.15365168021782644  0.11264424784047594  1.0000
  H   H3        1.0  0.4200102416806976  0.878274145303523  0.05874453368781162  1.0000
  H   H4        1.0  0.5799897581142238  0.12172585462436332  0.9412554662575336  1.0000
  H   H5        1.0  0.22700546386589285  0.6723150269392592  0.842126291044693  1.0000
  H   H6        1.0  0.7729945368485224  0.32768497298872507  0.15787370896411862  1.0000
  H   H7        1.0  0.09354403917221117  0.8788756767765932  0.8912338411242601  1.0000
  H   H8        1.0  0.9064559617011163  0.12112432401496744  0.10876615918820937  1.0000
  H   H9        1.0  0.7075079687320248  0.8941818498003382  0.22508726849891847  1.0000
  H   H10       1.0  0.29249203106289656  0.10581815012754808  0.7749127314464267  1.0000
  H   H11       1.0  0.36971252128162974  0.6728185259231524  0.026139365502999994  1.0000
  H   H12       1.0  0.6302874785132917  0.3271814740047339  0.9738606344423452  1.0000
  H   H13       1.0  0.22815899300650852  0.5726802872424255  0.9790067495409251  1.0000
  H   H14       1.0  0.7718410067884129  0.4273197126854608  0.020993250404419957  1.0000
  H   H15       1.0  0.2734758147324491  0.8098899844563768  0.1727548720406412  1.0000
  H   H16       1.0  0.7265241850624724  0.19011001547150944  0.8272451279047041  1.0000
  H   H17       1.0  0.2086698816253812  0.6765349087653457  0.18107488003342356  1.0000
  H   H18       1.0  0.7913301190890342  0.3234650911626385  0.8189251199753881  1.0000
  H   H19       1.0  0.9304042100250977  0.6283041805258285  0.8239881487078704  1.0000
  H   H20       1.0  0.06959579068931766  0.37169581940215574  0.17601185130094124  1.0000
  H   H21       1.0  0.04892267111256374  0.5495146096679071  0.8487491779413597  1.0000
  H   H22       1.0  0.9510773296018515  0.4504853902600771  0.15125082206745205  1.0000
  H   H23       1.0  0.12615052774639  0.9198914256270966  0.21591525036795775  1.0000
  H   H24       1.0  0.8738494720485315  0.08010857430078963  0.7840847495773875  1.0000
  H   H25       1.0  0.5204400923348578  0.8695082453454808  0.9011004759068295  1.0000
  H   H26       1.0  0.47955990837955753  0.1304917545825034  0.09889952410198218  1.0000
  H   H27       1.0  0.7165985850772143  0.8421264963082324  0.8189711467716945  1.0000
  H   H28       1.0  0.28340141471770725  0.15787350361965372  0.18102885317365072  1.0000
  H   H29       1.0  0.088462455855934  0.09208249060586578  0.5813702220448072  1.0000
  H   H30       1.0  0.9115375448584813  0.9079175093221185  0.41862977796400475  1.0000
  H   H31       1.0  0.19684917808391417  0.07433592788677588  0.431564858370736  1.0000
  H   H32       1.0  0.8031508217110074  0.9256640720411103  0.5684351415746093  1.0000
  H   H33       1.0  0.13304308246609164  0.28103538233519937  0.6466250567467996  1.0000
  H   H34       1.0  0.8669569173288297  0.7189646175926867  0.35337494319854545  1.0000
  H   H35       1.0  0.8754369617393635  0.12767801456665975  0.6143902114991397  1.0000
  H   H36       1.0  0.12456303805555793  0.8723219853612265  0.3856097884462054  1.0000
  H   H37       1.0  0.5554954856392297  0.18052680334642482  0.6860292996902402  1.0000
  H   H38       1.0  0.44450451415569175  0.8194731965814613  0.313970700255105  1.0000
  H   H39       1.0  0.33523932141394863  0.11032258720843234  0.5956970209578827  1.0000
  H   H40       1.0  0.6647606783809727  0.8896774127194538  0.4043029789874625  1.0000
  H   H41       1.0  0.8493200426885413  0.08851712269825002  0.2870727962240013  1.0000
  H   H42       1.0  0.15067995802587408  0.9114828772297342  0.7129272037848104  1.0000
  H   H43       1.0  0.4484054821649584  0.08601316189266467  0.27019560779268725  1.0000
  H   H44       1.0  0.551594517629963  0.9139868380352216  0.7298043921526579  1.0000
  H   H45       1.0  0.05094409138640989  0.16234947041989942  0.31816437041344753  1.0000
  H   H46       1.0  0.9490559084085115  0.8376505295079869  0.6818356295318976  1.0000
  H   H47       1.0  0.05801074861321883  0.3042797198386858  0.3178129066955138  1.0000
  H   H48       1.0  0.9419892521011963  0.6957202800892986  0.6821870933132979  1.0000
  H   H49       1.0  0.23693124084704215  0.26840222151442594  0.45760544787503615  1.0000
  H   H50       1.0  0.7630687589478793  0.7315977784134603  0.542394552070309  1.0000
  H   H51       1.0  0.16187055990054633  0.38798220698321295  0.5161542575981896  1.0000
  H   H52       1.0  0.838129440813869  0.6120177929447713  0.4838457424106221  1.0000
  H   H53       1.0  0.8853335249525535  0.3928267199894924  0.6873894182569303  1.0000
  H   H54       1.0  0.11466647500128001  0.6071732808019702  0.31261058199207253  1.0000
  H   H55       1.0  0.03534769639261787  0.44060281687749436  0.655223320215946  1.0000
  H   H56       1.0  0.9646523034023037  0.5593971830503919  0.3447766797293991  1.0000
  H   H57       1.0  0.31078022265752125  0.5294473187535875  0.29433641334792  1.0000
  H   H58       1.0  0.6892197771374002  0.4705526811742987  0.7056635865974251  1.0000
  H   H59       1.0  0.26405146251629874  0.3787859072208426  0.22415987931702794  1.0000
  H   H60       1.0  0.7359485374375347  0.6212140935706201  0.7758401209319751  1.0000
  H   H61       1.0  0.4186236975784741  0.3755332429524913  0.08966601619945243  1.0000
  H   H62       1.0  0.5813763022164474  0.624466756975395  0.9103339837458927  1.0000
  H   H63       1.0  0.3200192656183648  0.4750229574879578  0.08533403048201219  1.0000
  H   H64       1.0  0.6799807341765566  0.5249770424399283  0.914665969463333  1.0000
  H   H65       1.0  0.48155851112721304  0.6384305338134431  0.21302607049415145  1.0000
  H   H66       1.0  0.5184414886677083  0.3615694661144431  0.7869739294511936  1.0000
  H   H67       1.0  0.5456542650238384  0.5579908016534733  0.0929302162365579  1.0000
  H   H68       1.0  0.45434573477108303  0.442009198274413  0.9070697837087872  1.0000
  H   H69       1.0  0.6451354623422517  0.4549270886993617  0.20412023666077497  1.0000
  H   H70       1.0  0.3548645374526698  0.5450729112285246  0.7958797632845703  1.0000
  H   H71       1.0  0.6908761263640376  0.6049747736357544  0.27285583832317845  1.0000
  H   H72       1.0  0.30912387343088393  0.39502522629213205  0.7271441616221668  1.0000
  H   H73       1.0  0.5364701805195173  0.6066952013191595  0.40871316580321176  1.0000
  H   H74       1.0  0.4635298192754041  0.3933047986087267  0.5912868341421335  1.0000
  H   H75       1.0  0.6348208100564133  0.5050340936092329  0.40947732546727406  1.0000
  H   H76       1.0  0.36517919081691413  0.49496590718232775  0.5905226748451955  1.0000
  H   H77       1.0  0.41021273954870785  0.4237268870380257  0.40326173080415073  1.0000
  H   H78       1.0  0.5897872602462136  0.5762731128898606  0.5967382691411944  1.0000
  H   H79       1.0  0.47380747189444433  0.34442399485650965  0.28210775969202506  1.0000
  H   H80       1.0  0.526192527900477  0.6555760050713766  0.7178922402533201  1.0000
  C   C1        1.0  0.2239530580579317  0.7228050022011414  0.9321486757532019  1.0000
  C   C2        1.0  0.7760469426564837  0.27719499772684286  0.06785132425560986  1.0000
  C   C3        1.0  0.08772258817489469  0.7330455535863448  0.9547992263953701  1.0000
  C   C4        1.0  0.9122774125395207  0.2669544463416394  0.045200773613441624  1.0000
  C   C5        1.0  0.04674872880253512  0.8440929070810141  0.949224625637173  1.0000
  C   C6        1.0  0.9532512709923863  0.15590709284687218  0.05077537430817216  1.0000
  C   C7        1.0  0.8228238503753044  0.8496959435799081  0.9722923347246979  1.0000
  C   C8        1.0  0.1771761503391109  0.15030405634807603  0.027707665284113683  1.0000
  C   C9        1.0  0.8222216867885768  0.8680113447313843  0.0900780120511496  1.0000
  C   C10       1.0  0.17777831300634458  0.13198865519650188  0.9099219878941955  1.0000
  C   C11       1.0  0.7078907906763914  0.8820802249110556  0.13528643663927198  1.0000
  C   C12       1.0  0.29210920927744216  0.11791977588040699  0.864713563609731  1.0000
  C   C13       1.0  0.5991018102014406  0.8813654461657981  0.07011426005444933  1.0000
  C   C14       1.0  0.4008981895934809  0.1186345537620882  0.929885739890896  1.0000
  C   C15       1.0  0.26791023567136923  0.6651774701580807  0.014135264526578695  1.0000
  C   C16       1.0  0.7320897650430461  0.3348225297699034  0.9858647354822331  1.0000
  C   C17       1.0  0.215053649675114  0.7258648264243254  0.12411856399778935  1.0000
  C   C18       1.0  0.7849463501198075  0.2741351735035609  0.875881435947556  1.0000
  C   C19       1.0  0.08569489784020222  0.7460850532405198  0.08172375561759264  1.0000
  C   C20       1.0  0.9143051019547194  0.25391494668736647  0.9182762443277526  1.0000
  C   C21       1.0  0.9798721010921589  0.6520408433158886  0.07838641390646024  1.0000
  C   C22       1.0  0.020127898702762645  0.34795915661199767  0.921613586038885  1.0000
  C   C23       1.0  0.9986702912941571  0.6202054829581466  0.8879517315461541  1.0000
  C   C24       1.0  0.0013297085007644887  0.37979451696973976  0.11204826839919106  1.0000
  C   C25       1.0  0.929022823466184  0.876673580970717  0.17343857825767342  1.0000
  C   C26       1.0  0.07097717632873747  0.12332641895716917  0.8265614216876718  1.0000
  C   C27       1.0  0.05896046507534561  0.8705915797625079  0.13963640416782774  1.0000
  C   C28       1.0  0.9410395347195758  0.12940842016537837  0.8603635957775175  1.0000
  C   C29       1.0  0.603207162676368  0.8678519397549879  0.9544943107441666  1.0000
  C   C30       1.0  0.3967928371185534  0.13214806017289848  0.04550568920117863  1.0000
  C   C31       1.0  0.7127055661662335  0.8524062775179254  0.9079941261355904  1.0000
  C   C32       1.0  0.2872944345481818  0.14759372241005872  0.09200587387322139  1.0000
  C   C33       1.0  0.08839646502844631  0.24071167821708087  0.5576612359279657  1.0000
  C   C34       1.0  0.9116035347664752  0.7592883217108053  0.44233876401737954  1.0000
  C   C35       1.0  0.9523615232181314  0.2632077607362081  0.5468982554357622  1.0000
  C   C36       1.0  0.04763847673570216  0.7367922400552545  0.4531017448132407  1.0000
  C   C37       1.0  0.8511745102826808  0.1702576303006501  0.5546378745727253  1.0000
  C   C38       1.0  0.14882548951224073  0.8297423696272361  0.4453621253726199  1.0000
  C   C39       1.0  0.6263312979156396  0.17501978664950144  0.5305009082065797  1.0000
  C   C40       1.0  0.37366870279877584  0.8249802132784827  0.46949909180223215  1.0000
  C   C41       1.0  0.5312298501211878  0.16181360766369132  0.5951854741677562  1.0000
  C   C42       1.0  0.46877014967373365  0.8381863922641951  0.404814525777589  1.0000
  C   C43       1.0  0.4078292872769684  0.12332930980294957  0.5447695453434809  1.0000
  C   C44       1.0  0.5921707125179531  0.8766706901249366  0.4552304546018642  1.0000
  C   C45       1.0  0.37622762853680297  0.09665826161584261  0.4269203981753687  1.0000
  C   C46       1.0  0.6237723712581185  0.9033417383120438  0.5730796017699765  1.0000
  C   C47       1.0  0.9216642801735218  0.2567878912054132  0.4218339768384987  1.0000
  C   C48       1.0  0.07833571962139955  0.743212108722473  0.5781660231068465  1.0000
  C   C49       1.0  0.8217626165546409  0.14548855763898716  0.36572831709383097  1.0000
  C   C50       1.0  0.17823738415977436  0.854511442288997  0.6342716829149808  1.0000
  C   C51       1.0  0.4702009174890884  0.11019931797380456  0.3620359267859011  1.0000
  C   C52       1.0  0.5297990823058331  0.8898006819540816  0.637964073159444  1.0000
  C   C53       1.0  0.5957621478387353  0.14888275435379525  0.41186551138431815  1.0000
  C   C54       1.0  0.4042378519561861  0.8511172455740911  0.588134488561027  1.0000
  C   C55       1.0  0.6874687757684182  0.1575118855322925  0.33487554362538885  1.0000
  C   C56       1.0  0.3125312249459971  0.8424881143956916  0.665124456383423  1.0000
  C   C57       1.0  0.047074835834690174  0.25171400572072955  0.3714395117085579  1.0000
  C   C58       1.0  0.9529251639602313  0.7482859942071567  0.6285604882367873  1.0000
  C   C59       1.0  0.1464239919041553  0.2935082459902768  0.4766231256685508  1.0000
  C   C60       1.0  0.8535760078907662  0.7064917539376093  0.5233768742767944  1.0000
  C   C61       1.0  0.8757504876334521  0.3693374516632182  0.43320470765573815  1.0000
  C   C62       1.0  0.12424951216146952  0.6306625482646682  0.566795292289607  1.0000
  C   C63       1.0  0.943214151664299  0.38761866862059546  0.6196557831788573  1.0000
  C   C64       1.0  0.05678584828953464  0.6123813321708671  0.3803442170701457  1.0000
  C   C65       1.0  0.3444919469109512  0.44914932758822573  0.24740673068289576  1.0000
  C   C66       1.0  0.655508053803464  0.5508506723397584  0.752593269325916  1.0000
  C   C67       1.0  0.3936523174737756  0.45906666071161667  0.13996525063310053  1.0000
  C   C68       1.0  0.6063476832406397  0.5409333392163674  0.8600347493757113  1.0000
  C   C69       1.0  0.5087623304613459  0.5538208905278  0.1704265753284931  1.0000
  C   C70       1.0  0.4912376693335756  0.44617910940008626  0.8295734246168521  1.0000
  C   C71       1.0  0.6103897959709017  0.534722520555176  0.2499256797007064  1.0000
  C   C72       1.0  0.38961020382401984  0.46527747937271036  0.7500743202446388  1.0000
  C   C73       1.0  0.5612706428194701  0.5235785273273361  0.3568473030251986  1.0000
  C   C74       1.0  0.43872935697545123  0.47642147260055007  0.6431526969201465  1.0000
  C   C75       1.0  0.44625355647486836  0.4287193280215483  0.32579158928081847  1.0000
  C   C76       1.0  0.5537464433200531  0.5712806719063379  0.6742084106645267  1.0000
  O   O1        1.0  0.29758495308838007  0.8350925503985027  0.9605865165937226  1.0000
  O   O2        1.0  0.7024150476260352  0.1649074495294815  0.039413483415089004  1.0000
  O   O3        1.0  0.9160537085979285  0.8249464484816487  0.9064218168239109  1.0000
  O   O4        1.0  0.08394629135590519  0.17505355230981406  0.09357818342509212  1.0000
  O   O5        1.0  0.49320073439976037  0.8958434579374264  0.11943509265092508  1.0000
  O   O6        1.0  0.5067992653951611  0.10415654199045998  0.88056490729442  1.0000
  O   O7        1.0  0.9412734228771564  0.6323723823398142  0.15916629170585503  1.0000
  O   O8        1.0  0.05872657691859149  0.36762761758936013  0.8408337090338385  1.0000
  O   O9        1.0  0.928859743387773  0.5881043499835746  0.9694604957612115  1.0000
  O   O10       1.0  0.07114025640714854  0.41189564994431166  0.030539504184133703  1.0000
  O   O11       1.0  0.9178975996760922  0.8938596537946006  0.27508030376230114  1.0000
  O   O12       1.0  0.08210240103832327  0.1061403461333836  0.7249196962465106  1.0000
  O   O13       1.0  0.07741775358119643  0.9265486010107126  0.058604508190365674  1.0000
  O   O14       1.0  0.9225822471332189  0.07345139891727169  0.9413954918184462  1.0000
  O   O15       1.0  0.09471294845662148  0.11958221302062529  0.5171488822002303  1.0000
  O   O16       1.0  0.9052870513383  0.880417786907261  0.4828511177451149  1.0000
  O   O17       1.0  0.7431555542884679  0.22470589118941095  0.5897319042429154  1.0000
  O   O18       1.0  0.25684444550645363  0.7752941087384754  0.4102680957024298  1.0000
  O   O19       1.0  0.25677566642355515  0.055285496063811425  0.37364087677342656  1.0000
  O   O20       1.0  0.7432243333713664  0.9447145038640749  0.6263591231719186  1.0000
  O   O21       1.0  0.8242249611489526  0.08609537455438786  0.44542343826941666  1.0000
  O   O22       1.0  0.17577503972437458  0.9139046262371727  0.5545765620430528  1.0000
  O   O23       1.0  0.6555267462216335  0.1631560470483566  0.2404114311315014  1.0000
  O   O24       1.0  0.3444732535732878  0.8368439528795296  0.7595885688138437  1.0000
  O   O25       1.0  0.8377910405241673  0.40020989003640917  0.3565299038253452  1.0000
  O   O26       1.0  0.16220896019024802  0.5997901098915751  0.6434700961834666  1.0000
  O   O27       1.0  0.8842265871352474  0.4377348609393564  0.5442915379889725  1.0000
  O   O28       1.0  0.11577341265967409  0.56226513898853  0.45570846195637277  1.0000
