data_image0
_chemical_formula_structural       H40C36N2O8Cl2
_chemical_formula_sum              "H40 C36 N2 O8 Cl2"
_cell_length_a       6.04964034473234
_cell_length_b       7.43332237100624
_cell_length_c       19.025934022688578
_cell_angle_alpha    79.6870071796491
_cell_angle_beta     82.12236562733683
_cell_angle_gamma    83.37655295630975

_space_group_name_H-M_alt    "P 1"
_space_group_IT_number       1

loop_
  _space_group_symop_operation_xyz
  'x, y, z'

loop_
  _atom_site_type_symbol
  _atom_site_label
  _atom_site_symmetry_multiplicity
  _atom_site_fract_x
  _atom_site_fract_y
  _atom_site_fract_z
  _atom_site_occupancy
  H   H1        1.0  0.40603861774640293  0.4072252298667127  0.3757317887631207  1.0000
  H   H2        1.0  0.5939613825477837  0.59277476964003  0.6242682109556469  1.0000
  H   H3        1.0  0.11970927130806958  0.4924680017114891  0.3876751612553771  1.0000
  H   H4        1.0  0.8802907288072338  0.5075319991488245  0.6123248384650649  1.0000
  H   H5        1.0  0.001138480350004777  0.1838736311824632  0.42384642325764255  1.0000
  H   H6        1.0  0.9988615197560783  0.8161263680921861  0.5761535769991704  1.0000
  H   H7        1.0  0.47343538877099817  0.005538729391619623  0.38504449904099436  1.0000
  H   H8        1.0  0.5265646111562017  0.9944612712366006  0.6149555012174931  1.0000
  H   H9        1.0  0.39405140257066157  0.06264601664166064  0.4701340585295449  1.0000
  H   H10       1.0  0.6059485975446418  0.9373539842186527  0.5298659411908972  1.0000
  H   H11       1.0  0.7966488633900211  0.33231753429849337  0.33128389893458865  1.0000
  H   H12       1.0  0.20335113690416537  0.6676824652082491  0.6687161007841791  1.0000
  H   H13       1.0  0.4724439785796764  0.10211791701569695  0.27884340725783563  1.0000
  H   H14       1.0  0.527556021535627  0.8978820838446168  0.7211565924626063  1.0000
  H   H15       1.0  0.7340921735353817  0.3693261083345005  0.20249587986094378  1.0000
  H   H16       1.0  0.2659078265707013  0.6306738909401489  0.7975041203958693  1.0000
  H   H17       1.0  0.4101788065744305  0.13358262412708044  0.15192337547983445  1.0000
  H   H18       1.0  0.5898211920639496  0.8664173753893257  0.8480766242425029  1.0000
  H   H19       1.0  0.13573780785833073  0.3145039758027755  0.5184018943622877  1.0000
  H   H20       1.0  0.8642621922569725  0.6854960250575381  0.4815981053581543  1.0000
  H   H21       1.0  0.41748647387082727  0.315531149588297  0.4966667906487957  1.0000
  H   H22       1.0  0.5825135262352558  0.6844688496863522  0.5033332096080173  1.0000
  H   H23       1.0  0.2599160900269414  0.5169734281707578  0.49202830108069034  1.0000
  H   H24       1.0  0.7400839102672452  0.4830265713359849  0.5079716986380773  1.0000
  H   H25       1.0  0.9248455570272062  0.8810717518802956  0.16745884758740867  1.0000
  H   H26       1.0  0.07515444308809711  0.11892824898001805  0.8325411521330333  1.0000
  H   H27       1.0  0.3564546376674876  0.6274967104866125  0.287849899012062  1.0000
  H   H28       1.0  0.6435453606039058  0.3725032901512712  0.7121501012499952  1.0000
  H   H29       1.0  0.20600750102934545  0.6116248158748344  0.17435284329557052  1.0000
  H   H30       1.0  0.793992499264841  0.3883751836319083  0.8256471564231972  1.0000
  H   H31       1.0  0.7742469760794691  0.86739526129328  0.05308530827323074  1.0000
  H   H32       1.0  0.22575302402661412  0.1326047379813691  0.9469146919835824  1.0000
  H   H33       1.0  0.2450530796989134  0.8414211904920226  0.02981214668775535  1.0000
  H   H34       1.0  0.7549469205952731  0.15857880901471996  0.9701878530310123  1.0000
  H   H35       1.0  0.31618063882949515  0.6021674702961225  0.038897901034292165  1.0000
  H   H36       1.0  0.6838193612858082  0.39783253056419116  0.9611020986861499  1.0000
  H   H37       1.0  0.5099896370827522  0.7565216906928486  0.9900321147018126  1.0000
  H   H38       1.0  0.4900103628444477  0.2434783099353716  0.009967885556674617  1.0000
  H   H39       1.0  0.9686627764969196  0.8444927045807468  0.3455425784391438  1.0000
  H   H40       1.0  0.03133722360916342  0.15550729469390254  0.6544574218176693  1.0000
  C   C1        1.0  0.24237548976395498  0.37880605074434087  0.40586348928815724  1.0000
  C   C2        1.0  0.7576245103513484  0.6211939501159727  0.5941365104322847  1.0000
  C   C3        1.0  0.168439537764253  0.1971718846568288  0.39363830568723207  1.0000
  C   C4        1.0  0.8315604623418301  0.8028281146178204  0.606361694569581  1.0000
  C   C5        1.0  0.2183787849217672  0.8544103895849121  0.4488166344098694  1.0000
  C   C6        1.0  0.7816212151935362  0.14558961127540154  0.5511833653105725  1.0000
  C   C7        1.0  0.13796888555245324  0.21322783236959364  0.3148204267453711  1.0000
  C   C8        1.0  0.8620311145536299  0.7867721669050557  0.6851795735114419  1.0000
  C   C9        1.0  0.32552254378840334  0.03299058356629055  0.42352782577099357  1.0000
  C   C10       1.0  0.6744774565057831  0.9670094159404522  0.5764721739477741  1.0000
  C   C11       1.0  0.9315222951753622  0.28897472588136414  0.2918178504647279  1.0000
  C   C12       1.0  0.06847770493994117  0.7110252749789494  0.7081821492557141  1.0000
  C   C13       1.0  0.06854696039748383  0.253243969334447  0.17011956819443833  1.0000
  C   C14       1.0  0.9314530395297163  0.7467560312937733  0.829880432064049  1.0000
  C   C15       1.0  0.30918933340967686  0.16029116195410953  0.2632779953056653  1.0000
  C   C16       1.0  0.6908106667056265  0.8397088389062041  0.7367220044147768  1.0000
  C   C17       1.0  0.8949299071275337  0.3101611785210975  0.219888918530613  1.0000
  C   C18       1.0  0.10507009114385989  0.6898388221167863  0.7801110817314441  1.0000
  C   C19       1.0  0.27617705208584087  0.17858089567040433  0.19107447599829525  1.0000
  C   C20       1.0  0.723822947841359  0.8214191049578161  0.8089255242601922  1.0000
  C   C21       1.0  0.7394353226858847  0.7505007707899246  0.3038935679414193  1.0000
  C   C22       1.0  0.2605646774294186  0.24949923007038882  0.6961064317790228  1.0000
  C   C23       1.0  0.6515626671714915  0.7513547709588275  0.23476647543549908  1.0000
  C   C24       1.0  0.3484373327557085  0.24864522966939268  0.7652335248229882  1.0000
  C   C25       1.0  0.7679393110480102  0.8217264928076737  0.16842504315020781  1.0000
  C   C26       1.0  0.2320606888791896  0.17827350782054652  0.8315749571082797  1.0000
  C   C27       1.0  0.4479088836341354  0.6775315956208485  0.23612645506525295  1.0000
  C   C28       1.0  0.5520911164719478  0.3224684036538007  0.7638735451915601  1.0000
  C   C29       1.0  0.36408750825969527  0.6704460648390667  0.1724351929281407  1.0000
  C   C30       1.0  0.6359124918463878  0.3295539344355825  0.8275648073286723  1.0000
  C   C31       1.0  0.48028914790386124  0.738200728141474  0.10561460704231837  1.0000
  C   C32       1.0  0.5197108520233387  0.2617992724867462  0.8943853932161691  1.0000
  C   C33       1.0  0.6827686680510433  0.8141672264917181  0.10470348323419175  1.0000
  C   C34       1.0  0.31723133187615654  0.18583277413650193  0.8952965170242957  1.0000
  C   C35       1.0  0.3846746196195648  0.7335756975996912  0.03735172067035822  1.0000
  C   C36       1.0  0.6153253803076352  0.26642430302852893  0.9626482795881292  1.0000
  N   N1        1.0  0.26191018341512745  0.38088224075111016  0.4829501001633119  1.0000
  N   N2        1.0  0.738089816879059  0.6191177587556325  0.5170498995554558  1.0000
  O   O1        1.0  0.30551194182423735  0.7379455492188834  0.49745177056026557  1.0000
  O   O2        1.0  0.6944880582818457  0.26205445005576583  0.5025482296965474  1.0000
  O   O3        1.0  0.042676040877026575  0.8270479968557731  0.4236520217959157  1.0000
  O   O4        1.0  0.9573239590501732  0.17295200377244713  0.5763479784625717  1.0000
  O   O5        1.0  0.6546294146784314  0.6711504396699925  0.3625685199063251  1.0000
  O   O6        1.0  0.34537058377184526  0.3288495596143205  0.6374314803540576  1.0000
  O   O7        1.0  0.9189071777363751  0.8444092790083948  0.296667174046063  1.0000
  O   O8        1.0  0.08109282237892824  0.15559072185191877  0.703332825674379  1.0000
  Cl  Cl1       1.0  0.023670731911051963  0.27791470629596726  0.08028757310082316  1.0000
  Cl  Cl2       1.0  0.9763292683831347  0.7220852932107753  0.9197124266179445  1.0000
