data_image0
_chemical_formula_structural       H88C132O52
_chemical_formula_sum              "H88 C132 O52"
_cell_length_a       14.18625236983979
_cell_length_b       15.793224055924508
_cell_length_c       11.995535776997423
_cell_angle_alpha    90.0
_cell_angle_beta     90.0
_cell_angle_gamma    89.99971864306568

_space_group_name_H-M_alt    "P 1"
_space_group_IT_number       1

loop_
  _space_group_symop_operation_xyz
  'x, y, z'

loop_
  _atom_site_type_symbol
  _atom_site_label
  _atom_site_symmetry_multiplicity
  _atom_site_fract_x
  _atom_site_fract_y
  _atom_site_fract_z
  _atom_site_occupancy
  H   H1        1.0  0.1478765516025785  0.8708244981619819  0.48780146287593845  1.0000
  H   H2        1.0  0.6478836565767645  0.6291777184209935  0.5121984415053711  1.0000
  H   H3        1.0  0.3521163433980958  0.37082228189263755  0.5121984415053711  1.0000
  H   H4        1.0  0.8521234483722835  0.12917550151846618  0.48780146287593845  1.0000
  H   H5        1.0  0.10229700155371754  0.8830727915063246  0.6923896868305581  1.0000
  H   H6        1.0  0.6023018493986173  0.6169293137793249  0.3076121774465358  1.0000
  H   H7        1.0  0.397698150576243  0.3830706865343061  0.3076121774465358  1.0000
  H   H8        1.0  0.8977029984211445  0.11692720817412351  0.6923896868305581  1.0000
  H   H9        1.0  0.05485198650892562  0.7500250276567454  0.789367217607527  1.0000
  H   H10       1.0  0.5548572413849576  0.7499766230520967  0.21063238749577887  1.0000
  H   H11       1.0  0.4451427585899027  0.25002337726153445  0.21063238749577887  1.0000
  H   H12       1.0  0.9451480134659347  0.24997497265688562  0.789367217607527  1.0000
  H   H13       1.0  0.8931919501733799  0.5382814631348928  0.10479344594265805  1.0000
  H   H14       1.0  0.3931929768278131  0.9617190203360113  0.8952085467155292  1.0000
  H   H15       1.0  0.6068070231470472  0.03828097997761974  0.8952085467155292  1.0000
  H   H16       1.0  0.10680804980148224  0.4617185365455553  0.10479344594265805  1.0000
  H   H17       1.0  0.0666405864401701  0.6355878842369481  0.9503594038592854  1.0000
  H   H18       1.0  0.5666437542819881  0.864407937857403  0.049639386774356  1.0000
  H   H19       1.0  0.43335624569287395  0.13559206182304512  0.049639386774356  1.0000
  H   H20       1.0  0.9333594135346902  0.364412116076683  0.9503594038592854  1.0000
  H   H21       1.0  0.9776589651781552  0.7135780636704878  0.9470728028492996  1.0000
  H   H22       1.0  0.4776607719246292  0.786418717387114  0.05292607198233163  1.0000
  H   H23       1.0  0.5223392280502328  0.21358128229333415  0.05292607198233163  1.0000
  H   H24       1.0  0.02234103479670684  0.2864219360099603  0.9470728028492996  1.0000
  H   H25       1.0  0.9461604358592567  0.6050087944569692  0.9362803970404442  1.0000
  H   H26       1.0  0.44616301534973923  0.8949892429261095  0.06372248428167597  1.0000
  H   H27       1.0  0.5538369846251229  0.10501075675433871  0.06372248428167597  1.0000
  H   H28       1.0  0.05383956411560537  0.39499120522347897  0.9362803970404442  1.0000
  H   H29       1.0  0.26595913095471896  0.8437405007023587  0.6424544124805253  1.0000
  H   H30       1.0  0.7659659911611904  0.6562618247621993  0.35754220984646573  1.0000
  H   H31       1.0  0.23403400881366998  0.34373817555143166  0.35754220984646573  1.0000
  H   H32       1.0  0.7340408690201414  0.15625949961127225  0.6424544124805253  1.0000
  H   H33       1.0  0.2998754903468584  0.7931082044568512  0.44613326153069505  1.0000
  H   H34       1.0  0.7998814907362557  0.7068935772233661  0.5538646362707962  1.0000
  H   H35       1.0  0.20011850923860466  0.2931064230902651  0.5538646362707962  1.0000
  H   H36       1.0  0.7001245096280037  0.20689179522359694  0.44613326153069505  1.0000
  H   H37       1.0  0.22520248312240249  0.6549197175233441  0.3893499837627972  1.0000
  H   H38       1.0  0.7252072528481941  0.8450795179937748  0.6106490211172144  1.0000
  H   H39       1.0  0.2747927471266662  0.15492048231985622  0.6106490211172144  1.0000
  H   H40       1.0  0.7747975168524597  0.34508028215710396  0.3893499837627972  1.0000
  H   H41       1.0  0.2775000885300396  0.5117709459579862  0.12260160007360012  1.0000
  H   H42       1.0  0.7775006938216469  0.9882389229062414  0.8774054377948325  1.0000
  H   H43       1.0  0.22249930615321345  0.011761077407389525  0.8774054377948325  1.0000
  H   H44       1.0  0.7224999114448224  0.48822905372246184  0.12260160007360012  1.0000
  H   H45       1.0  0.38251506071259816  0.698394392810461  0.19924954703426032  1.0000
  H   H46       1.0  0.8825176308654257  0.8016155957490382  0.800747485445315  1.0000
  H   H47       1.0  0.11748236910943634  0.19838440393140996  0.800747485445315  1.0000
  H   H48       1.0  0.6174849392622622  0.3016056075031701  0.19924954703426032  1.0000
  H   H49       1.0  0.3099076390668367  0.6194620600029251  0.2595414284012325  1.0000
  H   H50       1.0  0.8099089512921229  0.8805492497230772  0.7404590286856937  1.0000
  H   H51       1.0  0.19009104868273907  0.11945074995737079  0.7404590286856937  1.0000
  H   H52       1.0  0.6900923609080254  0.380537939677523  0.2595414284012325  1.0000
  H   H53       1.0  0.26604914681566927  0.7246069079383941  0.23203273799052404  1.0000
  H   H54       1.0  0.7660514345803288  0.7754049129877326  0.7679674956799539  1.0000
  H   H55       1.0  0.23394856539453324  0.22459508669271552  0.7679674956799539  1.0000
  H   H56       1.0  0.7339508531591928  0.27539309174205406  0.23203273799052404  1.0000
  H   H57       1.0  0.9345253129502658  0.5986265618874603  0.6310917045086669  1.0000
  H   H58       1.0  0.4345232576702134  0.90136906637801  0.3689047744316482  1.0000
  H   H59       1.0  0.5654767423046487  0.09863093330243822  0.3689047744316482  1.0000
  H   H60       1.0  0.06547468702459452  0.40137343842617074  0.6310917045086669  1.0000
  H   H61       1.0  0.8720305855254028  0.5262700346948127  0.3980839096121872  1.0000
  H   H62       1.0  0.3720269589963467  0.9737306108069579  0.6019183456436913  1.0000
  H   H63       1.0  0.6279730409785155  0.026269388873490136  0.6019183456436913  1.0000
  H   H64       1.0  0.12796941444945759  0.4737299656188184  0.3980839096121872  1.0000
  H   H65       1.0  0.10918073245552579  0.80462013719756  0.1758816570782717  1.0000
  H   H66       1.0  0.60918606122021  0.6953797453266415  0.8241172569346024  1.0000
  H   H67       1.0  0.39081393875465203  0.3046202543538066  0.8241172569346024  1.0000
  H   H68       1.0  0.8908192675193364  0.19537986248288802  0.1758816570782717  1.0000
  H   H69       1.0  0.9741632174845979  0.9103338577693757  0.589192171270327  1.0000
  H   H70       1.0  0.4741612492922768  0.5896690057145137  0.41079273669870514  1.0000
  H   H71       1.0  0.5258387506825836  0.41033099459911715  0.41079273669870514  1.0000
  H   H72       1.0  0.02583678249026236  0.08966614254425524  0.589192171270327  1.0000
  H   H73       1.0  0.22899647612954052  0.5004479920450919  0.5959862938101707  1.0000
  H   H74       1.0  0.7289967876877406  0.9995541414618182  0.4040181614308099  1.0000
  H   H75       1.0  0.2710032122871198  0.0004458588518128328  0.4040181614308099  1.0000
  H   H76       1.0  0.7710035238453198  0.4995520082685391  0.5959862938101707  1.0000
  H   H77       1.0  0.24076579207306134  0.44796801881440795  0.8427557716417765  1.0000
  H   H78       1.0  0.740765272408408  0.052036833867971644  0.157250651831423  1.0000
  H   H79       1.0  0.2592347275664541  0.9479631658124764  0.157250651831423  1.0000
  H   H80       1.0  0.7592342079017991  0.5520319814992232  0.8427557716417765  1.0000
  H   H81       1.0  0.26522405767759427  0.8247264682539995  0.9685581374597151  1.0000
  H   H82       1.0  0.7652226182952763  0.6752784172300119  0.03143714770315932  1.0000
  H   H83       1.0  0.2347773816795841  0.32472158308361904  0.03143714770315932  1.0000
  H   H84       1.0  0.7347759422972677  0.17527353142644864  0.9685581374597151  1.0000
  H   H85       1.0  0.40986224904764773  0.6951957297346901  0.4895203581702645  1.0000
  H   H86       1.0  0.9098646408226785  0.8048107272302805  0.5104755497242777  1.0000
  H   H87       1.0  0.09013535915218361  0.19518927245016773  0.5104755497242777  1.0000
  H   H88       1.0  0.5901377509272127  0.304804270578941  0.4895203581702645  1.0000
  C   C1        1.0  0.13869210148309244  0.8161359684251879  0.5429773601684286  1.0000
  C   C2        1.0  0.6386985342996924  0.6838647895059005  0.4570215171641331  1.0000
  C   C3        1.0  0.361301465675168  0.3161352108077306  0.4570215171641331  1.0000
  C   C4        1.0  0.8613078984917678  0.18386403188844314  0.5429773601684286  1.0000
  C   C5        1.0  0.07282883676920886  0.832091074194638  0.6406511716414225  1.0000
  C   C6        1.0  0.5728341713520031  0.6679117726412861  0.35934870606329616  1.0000
  C   C7        1.0  0.4271658286228573  0.3320882276723449  0.35934870606329616  1.0000
  C   C8        1.0  0.9271711632056515  0.16790892611899302  0.6406511716414225  1.0000
  C   C9        1.0  0.08041517261096878  0.7477427811050403  0.703332984607363  1.0000
  C   C10       1.0  0.5804199390652433  0.7522597609818464  0.296665674310611  1.0000
  C   C11       1.0  0.419580060909617  0.24774023933178466  0.296665674310611  1.0000
  C   C12       1.0  0.9195848273638932  0.2522572185754078  0.703332984607363  1.0000
  C   C13       1.0  0.02561396716495569  0.6842068388871779  0.6377510669152368  1.0000
  C   C14       1.0  0.5256166965298485  0.815793575576784  0.3622473835918712  1.0000
  C   C15       1.0  0.47438330344501345  0.18420642410366406  0.3622473835918712  1.0000
  C   C16       1.0  0.9743860328099063  0.31579316079327024  0.6377510669152368  1.0000
  C   C17       1.0  0.9270414802487845  0.5784480992182167  0.27118309431729676  1.0000
  C   C18       1.0  0.4270421859955694  0.9215518578548233  0.728817406952733  1.0000
  C   C19       1.0  0.5729578139792926  0.07844814182562475  0.728817406952733  1.0000
  C   C20       1.0  0.07295851972607748  0.42155190046223134  0.27118309431729676  1.0000
  C   C21       1.0  0.9332663512730219  0.5837742286479174  0.15396112890109526  1.0000
  C   C22       1.0  0.43326691867054606  0.916226212865314  0.846039583280731  1.0000
  C   C23       1.0  0.5667330813043143  0.08377378744831704  0.846039583280731  1.0000
  C   C24       1.0  0.06673364870183839  0.41622577166571356  0.15396112890109526  1.0000
  C   C25       1.0  0.9863750781986782  0.6452024991488523  0.10101565970263876  1.0000
  C   C26       1.0  0.4863759701083809  0.8547973363298724  0.8989853025722269  1.0000
  C   C27       1.0  0.5136240298664811  0.1452026633505757  0.8989853025722269  1.0000
  C   C28       1.0  0.013624921776183893  0.35479750053159576  0.10101565970263876  1.0000
  C   C29       1.0  0.03473187816557696  0.7059895765027551  0.16773852851645182  1.0000
  C   C30       1.0  0.5347329803835316  0.7940117764321847  0.8322613508555539  1.0000
  C   C31       1.0  0.46526701959132877  0.20598822388144644  0.8322613508555539  1.0000
  C   C32       1.0  0.9652681218092832  0.2940104238108759  0.16773852851645182  1.0000
  C   C33       1.0  0.09369312299430817  0.7557801420562282  0.3499173499235441  1.0000
  C   C34       1.0  0.5936994959194181  0.7442228055580367  0.6500831188343906  1.0000
  C   C35       1.0  0.40630050405544216  0.25577719475559435  0.6500831188343906  1.0000
  C   C36       1.0  0.9063068769805521  0.24421985825740272  0.3499173499235441  1.0000
  C   C37       1.0  0.9779589095898527  0.6281499493370584  0.4578830284956917  1.0000
  C   C38       1.0  0.4779590841626706  0.8718515507936297  0.5421153594881565  1.0000
  C   C39       1.0  0.5220409165170975  0.12814844951999974  0.5421153594881565  1.0000
  C   C40       1.0  0.02204109038500949  0.37185005034338975  0.4578830284956917  1.0000
  C   C41       1.0  0.03673782339535752  0.682118817890741  0.5235263707055466  1.0000
  C   C42       1.0  0.5367423563603914  0.8178829638100533  0.4764734953281636  1.0000
  C   C43       1.0  0.46325764361447075  0.18211703587039488  0.4764734953281636  1.0000
  C   C44       1.0  0.9632621765795027  0.3178811824228901  0.5235263707055466  1.0000
  C   C45       1.0  0.9815025474412507  0.6332323908682972  0.3376131150195035  1.0000
  C   C46       1.0  0.48150448275236585  0.8667688018930286  0.6623865609434968  1.0000
  C   C47       1.0  0.5184955172224962  0.13323119778741943  0.6623865609434968  1.0000
  C   C48       1.0  0.018497452533611437  0.36676760881215104  0.3376131150195035  1.0000
  C   C49       1.0  0.03617894888643842  0.6980661804034786  0.2851483029677712  1.0000
  C   C50       1.0  0.5361811429437956  0.8019352877836543  0.7148526359650773  1.0000
  C   C51       1.0  0.4638188570310647  0.19806471252997673  0.7148526359650773  1.0000
  C   C52       1.0  0.9638210510884236  0.30193381927696955  0.2851483029677712  1.0000
  C   C53       1.0  0.1136759416121154  0.7351583812530554  0.4719544558281564  1.0000
  C   C54       1.0  0.6136817480775223  0.7648444664726214  0.5280445332126295  1.0000
  C   C55       1.0  0.3863182518973381  0.23515553384100962  0.5280445332126295  1.0000
  C   C56       1.0  0.8863240583627449  0.26484161906057563  0.4719544558281564  1.0000
  C   C57       1.0  0.9940846327736274  0.6496215540556357  0.9769418938729008  1.0000
  C   C58       1.0  0.49408633436576516  0.8503763089625133  0.023059185112049827  1.0000
  C   C59       1.0  0.5059136656090969  0.1496236907179349  0.023059185112049827  1.0000
  C   C60       1.0  0.005915367906140725  0.35037844625799386  0.9769418938729008  1.0000
  C   C61       1.0  0.2289603846018173  0.7904775645401303  0.6037590120724756  1.0000
  C   C62       1.0  0.7289658946459261  0.7095247818624427  0.3962391858406627  1.0000
  C   C63       1.0  0.2710341053289341  0.2904752184511884  0.3962391858406627  1.0000
  C   C64       1.0  0.7710396153730448  0.20952243514031785  0.6037590120724756  1.0000
  C   C65       1.0  0.2851435102504844  0.7468493950069182  0.5126910055816943  1.0000
  C   C66       1.0  0.7851473885187508  0.7531537629389271  0.4873051007199923  1.0000
  C   C67       1.0  0.2148526114561095  0.2468462373747039  0.4873051007199923  1.0000
  C   C68       1.0  0.7148564897243775  0.2531506046735299  0.5126910055816943  1.0000
  C   C69       1.0  0.2105730787612853  0.6822875413909874  0.4711501374401023  1.0000
  C   C70       1.0  0.7105778572612489  0.8177142628560141  0.5288490675143408  1.0000
  C   C71       1.0  0.2894221427136115  0.18228573745761692  0.5288490675143408  1.0000
  C   C72       1.0  0.7894269212135749  0.3177124589226436  0.4711501374401023  1.0000
  C   C73       1.0  0.21247081489774425  0.6143006831273065  0.5571157824242498  1.0000
  C   C74       1.0  0.7124733146034374  0.8857017447575115  0.44288405860015645  1.0000
  C   C75       1.0  0.2875266853714246  0.11429825492293658  0.44288405860015645  1.0000
  C   C76       1.0  0.7875291850771161  0.3856993171863245  0.5571157824242498  1.0000
  C   C77       1.0  0.25261395573845075  0.5362802897395271  0.9483805351833635  1.0000
  C   C78       1.0  0.7526165503303075  0.9637261127989112  0.05162376583357616  1.0000
  C   C79       1.0  0.24738344964455458  0.036273886881536856  0.05162376583357616  1.0000
  C   C80       1.0  0.7473860442364095  0.46371971057410394  0.9483805351833635  1.0000
  C   C81       1.0  0.2702061850272102  0.5611794320691224  0.05949135689032369  1.0000
  C   C82       1.0  0.770210005530535  0.938827867510894  0.940513666061856  1.0000
  C   C83       1.0  0.2297899944443253  0.061172132802737055  0.940513666061856  1.0000
  C   C84       1.0  0.7297938156525596  0.4388205676113242  0.05949135689032369  1.0000
  C   C85       1.0  0.2815533683084542  0.6452590376122322  0.08772062620310803  1.0000
  C   C86       1.0  0.7815570117780439  0.8547486980883684  0.912278787162201  1.0000
  C   C87       1.0  0.21844298819681643  0.1452513022252626  0.912278787162201  1.0000
  C   C88       1.0  0.7184466316664061  0.3547409627013987  0.08772062620310803  1.0000
  C   C89       1.0  0.2696143102147775  0.7083304857222102  0.004082005248477241  1.0000
  C   C90       1.0  0.7696179348184323  0.7916768943233029  0.9959189636955361  1.0000
  C   C91       1.0  0.23038206515642806  0.20832310599032808  0.9959189636955361  1.0000
  C   C92       1.0  0.7303856897600846  0.2916695139582378  0.004082005248477241  1.0000
  C   C93       1.0  0.22876119586733099  0.7517250963316884  0.8126602705560914  1.0000
  C   C94       1.0  0.7287618105533863  0.7482797532900081  0.1873383991992476  1.0000
  C   C95       1.0  0.2712381894214759  0.25172024639044005  0.1873383991992476  1.0000
  C   C96       1.0  0.7712388041075311  0.24827490334875965  0.8126602705560914  1.0000
  C   C97       1.0  0.22410178114067933  0.5728917055432491  0.7505800530615129  1.0000
  C   C98       1.0  0.7241023405972107  0.9271109907001599  0.24942210132350665  1.0000
  C   C99       1.0  0.27589765937765137  0.0728890089802882  0.24942210132350665  1.0000
  C   C100      1.0  0.775898218834181  0.427108294770382  0.7505800530615129  1.0000
  C   C101      1.0  0.20867113881019386  0.6363499214424005  0.6685481481684487  1.0000
  C   C102      1.0  0.7086754859243789  0.8636525027623386  0.33145235726979855  1.0000
  C   C103      1.0  0.2913245140504831  0.1363474969181095  0.33145235726979855  1.0000
  C   C104      1.0  0.7913288611646664  0.36365007887123046  0.6685481481684487  1.0000
  C   C105      1.0  0.2400388722768971  0.5979832605835416  0.8649666236581497  1.0000
  C   C106      1.0  0.7400426387928826  0.9020206482819865  0.13503653526724405  1.0000
  C   C107      1.0  0.2599573611819778  0.09797935203164466  0.13503653526724405  1.0000
  C   C108      1.0  0.759961127697965  0.4020167390969065  0.8649666236581497  1.0000
  C   C109      1.0  0.24662720892510623  0.685618848985807  0.8936411361096559  1.0000
  C   C110      1.0  0.7466303217914583  0.8143866242109455  0.10635807051207415  1.0000
  C   C111      1.0  0.2533696781834036  0.18561337546950257  0.10635807051207415  1.0000
  C   C112      1.0  0.7533727910497559  0.31438115069464106  0.8936411361096559  1.0000
  C   C113      1.0  0.19195814405065484  0.7280156364959683  0.6976388020989851  1.0000
  C   C114      1.0  0.6919617117498672  0.771986924615143  0.3023608763649457  1.0000
  C   C115      1.0  0.30803828822499485  0.2280130750653051  0.3023608763649457  1.0000
  C   C116      1.0  0.8080418559242055  0.2719843638176627  0.6976388020989851  1.0000
  C   C117      1.0  0.3105305205039097  0.6727215664566972  0.20135687599979712  1.0000
  C   C118      1.0  0.8105332505444279  0.8272894815754757  0.7986421447194403  1.0000
  C   C119      1.0  0.18946674943043426  0.17271051810497254  0.7986421447194403  1.0000
  C   C120      1.0  0.6894694794709524  0.32727843322375083  0.20135687599979712  1.0000
  C   C121      1.0  0.0  0.0  0.8701381525630076  1.0000
  C   C122      1.0  0.500000000339885  0.4999999998402233  0.12987293681266093  1.0000
  C   C123      1.0  0.991705837504488  0.9594697158167842  0.9789095200330645  1.0000
  C   C124      1.0  0.4916993255181618  0.5405267468712861  0.02109325458269227  1.0000
  C   C125      1.0  0.5083006744566985  0.45947325344234496  0.02109325458269227  1.0000
  C   C126      1.0  0.008294162470372351  0.04053028449684689  0.9789095200330645  1.0000
  C   C127      1.0  0.500000000339885  0.4999999998402233  0.6434170439306471  1.0000
  C   C128      1.0  0.0  0.0  0.3566131783961682  1.0000
  C   C129      1.0  0.4696352865811299  0.5309469391679577  0.751851167606412  1.0000
  C   C130      1.0  0.9696208676555453  0.969062648881913  0.2481875895621898  1.0000
  C   C131      1.0  0.03037913231931668  0.0309373507985352  0.2481875895621898  1.0000
  C   C132      1.0  0.5303647133937304  0.46905306114567336  0.751851167606412  1.0000
  O   O1        1.0  0.9766193413182872  0.8518212620263466  0.6148484200383194  1.0000
  O   O2        1.0  0.4766220166927531  0.6481835738552453  0.38514965699651654  1.0000
  O   O3        1.0  0.5233779832821073  0.35181642645838584  0.38514965699651654  1.0000
  O   O4        1.0  0.023380659361480805  0.14817873828728295  0.6148484200383194  1.0000
  O   O5        1.0  0.9651809088898918  0.6353655457247187  0.6924226524277061  1.0000
  O   O6        1.0  0.4651811959366812  0.8646318210441258  0.30757572555242046  1.0000
  O   O7        1.0  0.534818804743087  0.13536817926950365  0.30757572555242046  1.0000
  O   O8        1.0  0.034819091084970256  0.36463445395572935  0.6924226524277061  1.0000
  O   O9        1.0  0.8683304637550401  0.5199207976989275  0.3146353910458443  1.0000
  O   O10       1.0  0.368328868946293  0.9800790731041666  0.6853671668226117  1.0000
  O   O11       1.0  0.6316711310285672  0.019920927209464364  0.6853671668226117  1.0000
  O   O12       1.0  0.13166953621982191  0.4800792019815206  0.3146353910458443  1.0000
  O   O13       1.0  0.07975695152624192  0.7689375543510891  0.11485624532436389  1.0000
  O   O14       1.0  0.5797597358503098  0.7310610433508646  0.8851437457558659  1.0000
  O   O15       1.0  0.42024026412455234  0.2689389563295836  0.8851437457558659  1.0000
  O   O16       1.0  0.9202430484486184  0.2310624459625418  0.11485624532436389  1.0000
  O   O17       1.0  0.13392754011433863  0.8184332437694822  0.3057348748884306  1.0000
  O   O18       1.0  0.6339377716708275  0.6815709421082894  0.6942644326041586  1.0000
  O   O19       1.0  0.36606222830403273  0.3184290582053416  0.6942644326041586  1.0000
  O   O20       1.0  0.8660724598605217  0.1815667565441488  0.3057348748884306  1.0000
  O   O21       1.0  0.920065722665685  0.5765988245262292  0.5059690565584067  1.0000
  O   O22       1.0  0.42006399402051536  0.9234008109519984  0.49403089617422374  1.0000
  O   O23       1.0  0.5799360059543449  0.07659918936163262  0.49403089617422374  1.0000
  O   O24       1.0  0.0799342773091772  0.4234011751542188  0.5059690565584067  1.0000
  O   O25       1.0  0.36886345607239246  0.7098459564633052  0.5533825127452184  1.0000
  O   O26       1.0  0.8688659287857847  0.7901552967754533  0.4466159669394108  1.0000
  O   O27       1.0  0.13113407118907566  0.2098447035381777  0.4466159669394108  1.0000
  O   O28       1.0  0.6311365446073773  0.29015404321714144  0.5533825127452184  1.0000
  O   O29       1.0  0.2283780026611004  0.5359428232040093  0.5231509151957864  1.0000
  O   O30       1.0  0.7283792631267251  0.9640586576561622  0.47685131588443175  1.0000
  O   O31       1.0  0.2716207368481352  0.03594134265746885  0.47685131588443175  1.0000
  O   O32       1.0  0.77162199731376  0.4640571771096218  0.5231509151957864  1.0000
  O   O33       1.0  0.24892824950427495  0.45304510493458033  0.9263920200471082  1.0000
  O   O34       1.0  0.7489306289762827  0.046958773101574015  0.07361559303531472  1.0000
  O   O35       1.0  0.2510693709985776  0.9530412272120571  0.07361559303531472  1.0000
  O   O36       1.0  0.7510717504705853  0.5469548953790507  0.9263920200471082  1.0000
  O   O37       1.0  0.2806829817307934  0.7885354523579361  0.03573490488203077  1.0000
  O   O38       1.0  0.7806832717666253  0.711471199974168  0.9642620158893204  1.0000
  O   O39       1.0  0.219316728208235  0.2885288003394631  0.9642620158893204  1.0000
  O   O40       1.0  0.7193170182440668  0.2114645479556949  0.03573490488203077  1.0000
  O   O41       1.0  0.23582993958931914  0.8287434582597403  0.837695114816726  1.0000
  O   O42       1.0  0.7358266938627545  0.671262222910065  0.16229993109047422  1.0000
  O   O43       1.0  0.2641733061121059  0.328737777403566  0.16229993109047422  1.0000
  O   O44       1.0  0.764170060385543  0.1712565414207079  0.837695114816726  1.0000
  O   O45       1.0  0.22774901717618665  0.4934938605382789  0.7229256584461323  1.0000
  O   O46       1.0  0.7277446196404983  0.006508771412517752  0.27707460857008404  1.0000
  O   O47       1.0  0.2722553803343639  0.9934912282679303  0.27707460857008404  1.0000
  O   O48       1.0  0.7722509827986737  0.5065061397753522  0.7229256584461323  1.0000
  O   O49       1.0  0.0  0.0  0.7713532319034146  1.0000
  O   O50       1.0  0.500000000339885  0.4999999998402233  0.2286499503639961  1.0000
  O   O51       1.0  0.500000000339885  0.4999999998402233  0.5441843308506188  1.0000
  O   O52       1.0  0.0  0.0  0.45584460099611396  1.0000
