data_image0
_chemical_formula_structural       H32C38N8O16S2
_chemical_formula_sum              "H32 C38 N8 O16 S2"
_cell_length_a       7.074097582159005
_cell_length_b       11.473778372951372
_cell_length_c       13.693786116109216
_cell_angle_alpha    108.55027104747266
_cell_angle_beta     99.04532269730045
_cell_angle_gamma    104.65147204879975

_space_group_name_H-M_alt    "P 1"
_space_group_IT_number       1

loop_
  _space_group_symop_operation_xyz
  'x, y, z'

loop_
  _atom_site_type_symbol
  _atom_site_label
  _atom_site_symmetry_multiplicity
  _atom_site_fract_x
  _atom_site_fract_y
  _atom_site_fract_z
  _atom_site_occupancy
  H   H1        1.0  0.22949745075662126  0.41972594416798614  0.1003892328853345  1.0000
  H   H2        1.0  0.7705025500048164  0.580274056453943  0.8996107668324436  1.0000
  H   H3        1.0  0.4272202384196299  0.2999523585663873  0.0899628953289641  1.0000
  H   H4        1.0  0.5727797618843067  0.7000476410844021  0.9100371048232034  1.0000
  H   H5        1.0  0.2872062035503552  0.8464726096960734  0.18516663497291674  1.0000
  H   H6        1.0  0.7127937967535816  0.15352738995471613  0.8148333651792508  1.0000
  H   H7        1.0  0.22020629632523603  0.8897564500027868  0.020200096132149025  1.0000
  H   H8        1.0  0.7797937025426506  0.11024354963843513  0.979799903909862  1.0000
  H   H9        1.0  0.015982948274267283  0.9275797888723543  0.15674500844381734  1.0000
  H   H10       1.0  0.9840170525050564  0.07242021174997455  0.8432549920057223  1.0000
  H   H11       1.0  0.4235821511246129  0.0796017303258711  0.9888389100512482  1.0000
  H   H12       1.0  0.5764178491793239  0.9203982693249184  0.011161090100919206  1.0000
  H   H13       1.0  0.8102508484744134  0.25720042702025675  0.40603353154689054  1.0000
  H   H14       1.0  0.18974915182952323  0.7427995726305326  0.5939664686052769  1.0000
  H   H15       1.0  0.6550041019736079  0.09651032064888987  0.33169945486147223  1.0000
  H   H16       1.0  0.3449958968942786  0.9034896789923321  0.6683005451805389  1.0000
  H   H17       1.0  0.5817679232000217  0.2259953551690921  0.3083487729186903  1.0000
  H   H18       1.0  0.41823207566786486  0.7740046444721298  0.6916512271233208  1.0000
  H   H19       1.0  0.7457147226827335  0.3991205096254276  0.9600435943835527  1.0000
  H   H20       1.0  0.2542852776212031  0.6008794900253618  0.03995640576861483  1.0000
  H   H21       1.0  0.7486655258766758  0.7493318997974895  0.11651163733260725  1.0000
  H   H22       1.0  0.25133447440937484  0.2506680998529003  0.8834883620877986  1.0000
  H   H23       1.0  0.7586102576963977  0.8676326170382472  0.3912598078457586  1.0000
  H   H24       1.0  0.24138974308292604  0.13236738358408154  0.608740192603781  1.0000
  H   H25       1.0  0.7288533305035781  0.48976737474811904  0.4019251113990937  1.0000
  H   H26       1.0  0.2711466698003585  0.5102326249026704  0.5980748887530737  1.0000
  H   H27       1.0  0.735590231279188  0.41071761016345426  0.21215190785611202  1.0000
  H   H28       1.0  0.26440976902474866  0.5892823894873351  0.7878480922960553  1.0000
  H   H29       1.0  0.7509411436227185  0.6721665813151323  0.5584328424929845  1.0000
  H   H30       1.0  0.24905885522728205  0.3278334183256899  0.4415671568172649  1.0000
  H   H31       1.0  0.7548520374861238  0.8223292500815719  0.5526886596026894  1.0000
  H   H32       1.0  0.2451479628178128  0.17767074956921747  0.447311340549478  1.0000
  C   C1        1.0  0.3341402044694771  0.21790013976547362  0.1030339410283008  1.0000
  C   C2        1.0  0.6658597948737964  0.7820998608472876  0.8969660593110823  1.0000
  C   C3        1.0  0.8251936575657827  0.1881500993413287  0.24494500974541247  1.0000
  C   C4        1.0  0.1748063432135411  0.8118499012810002  0.7550549907041271  1.0000
  C   C5        1.0  0.24243553328593778  0.5788481328698646  0.22501631265823588  1.0000
  C   C6        1.0  0.757564467017999  0.4211518667809249  0.7749836874939318  1.0000
  C   C7        1.0  0.10528470620472351  0.1308056013839114  0.19437045110922743  1.0000
  C   C8        1.0  0.8947152940813271  0.8691943982664784  0.8056295483111785  1.0000
  C   C9        1.0  0.21997949313439533  0.37201856276892287  0.23807100752581203  1.0000
  C   C10       1.0  0.7800205061909923  0.6279814378434387  0.7619289920818095  1.0000
  C   C11       1.0  0.21916157364989286  0.2392128206361058  0.1779091012519832  1.0000
  C   C12       1.0  0.7808384266361579  0.760787179014284  0.8220908981684227  1.0000
  C   C13       1.0  0.27135839812921825  0.7743127969190177  0.22147225564113288  1.0000
  C   C14       1.0  0.7286416007386682  0.2256872027222043  0.7785277444008782  1.0000
  C   C15       1.0  0.26428271411728166  0.7961531658693847  0.32565431181845395  1.0000
  C   C16       1.0  0.735717286662042  0.20384683475294418  0.6743456886310856  1.0000
  C   C17       1.0  0.22283780293490374  0.9875444964116136  0.06588142808146245  1.0000
  C   C18       1.0  0.7771621959150968  0.012455503229208789  0.934118571228787  1.0000
  C   C19       1.0  0.1082671972299342  0.006725146213068351  0.14001731233019343  1.0000
  C   C20       1.0  0.8917328030740025  0.993274853437721  0.8599826878219741  1.0000
  C   C21       1.0  0.3350534003516495  0.09348662583700898  0.04720601581367687  1.0000
  C   C22       1.0  0.6649465999522872  0.9065133738137805  0.9527939843384906  1.0000
  C   C23       1.0  0.7092883567160633  0.19249336854873714  0.3272974782406052  1.0000
  C   C24       1.0  0.2907116435878734  0.8075066311020522  0.6727025219115623  1.0000
  C   C25       1.0  0.7503884128984114  0.5449099289795895  0.08261464652824184  1.0000
  C   C26       1.0  0.24961158595158908  0.45509007066123275  0.9173853527820076  1.0000
  C   C27       1.0  0.74406563899825  0.5907610616581978  0.19240990756579754  1.0000
  C   C28       1.0  0.2559343617810737  0.40923893896413094  0.807590092883742  1.0000
  C   C29       1.0  0.7512761537270967  0.7670460011525123  0.3522738352444693  1.0000
  C   C30       1.0  0.24872384559829083  0.23295399945984924  0.6477261643631521  1.0000
  C   C31       1.0  0.7487133473968197  0.7212118087175667  0.24504498373480177  1.0000
  C   C32       1.0  0.251286653382504  0.2787881919047621  0.7549550167147379  1.0000
  C   C33       1.0  0.7344678050732197  0.5535351347767002  0.3572719616041806  1.0000
  C   C34       1.0  0.26553219379466686  0.44646486486452175  0.6427280384378304  1.0000
  C   C35       1.0  0.7366876824693912  0.509684742793754  0.25180566742463256  1.0000
  C   C36       1.0  0.26331231639849534  0.49031525684746796  0.7481943326173784  1.0000
  C   C37       1.0  0.7431963228893098  0.684376488271986  0.4102649514266776  1.0000
  C   C38       1.0  0.2568036774146269  0.31562351137880335  0.5897350487254899  1.0000
  N   N1        1.0  0.25739725581261  0.6511100027971455  0.16471603161732498  1.0000
  N   N2        1.0  0.7426027444913267  0.34888999685364397  0.8352839685348424  1.0000
  N   N3        1.0  0.22999780144977566  0.452256102268604  0.18140431132614063  1.0000
  N   N4        1.0  0.7700021974181108  0.5477438973726179  0.8185956887158705  1.0000
  N   N5        1.0  0.269420500335546  0.9147863910723597  0.40092938830284414  1.0000
  N   N6        1.0  0.7305795004437778  0.08521360954996922  0.5990706121466954  1.0000
  N   N7        1.0  0.7402387933455781  0.727471778299568  0.5137681746784218  1.0000
  N   N8        1.0  0.25976120695835847  0.2725282213512213  0.4862318254737457  1.0000
  O   O1        1.0  0.9823372252377395  0.14108244735668585  0.26477723487019733  1.0000
  O   O2        1.0  0.017662773630147087  0.8589175522845361  0.7352227651718137  1.0000
  O   O3        1.0  0.7916001920077514  0.2206593080600772  0.1692144890692405  1.0000
  O   O4        1.0  0.20839980827829926  0.7793406915903125  0.8307855103511653  1.0000
  O   O5        1.0  0.2601767812510144  0.9195172181922275  0.49238169571019236  1.0000
  O   O6        1.0  0.7398232176168721  0.08048278144899425  0.5076183043318188  1.0000
  O   O7        1.0  0.28200353301409276  0.00847122781446981  0.3712911367574737  1.0000
  O   O8        1.0  0.7179964663112949  0.991528772797892  0.6287088628501479  1.0000
  O   O9        1.0  0.21407177976683434  0.413255928609776  0.3330050402962465  1.0000
  O   O10       1.0  0.7859282209946032  0.5867440720121531  0.6669949594215315  1.0000
  O   O11       1.0  0.7606738411906265  0.6179412454542859  0.028942670393499865  1.0000
  O   O12       1.0  0.23932615958869716  0.382058755168043  0.9710573300560398  1.0000
  O   O13       1.0  0.7464610242200967  0.4228561111204946  0.03952721480883926  1.0000
  O   O14       1.0  0.2535389746299038  0.5771438885203275  0.9604727845014103  1.0000
  O   O15       1.0  0.749737967720143  0.8023333213132604  0.19133053920109921  1.0000
  O   O16       1.0  0.25026203305918054  0.1976666793090683  0.8086694612484403  1.0000
  S   S1        1.0  0.24143143302368414  0.6573936971491959  0.3553216117796536  1.0000
  S   S2        1.0  0.7585685672802527  0.3426063025015936  0.6446783883725139  1.0000
