data_image0
_chemical_formula_structural       H76C112N16O12
_chemical_formula_sum              "H76 C112 N16 O12"
_cell_length_a       5.242325890875581
_cell_length_b       16.177635713584426
_cell_length_c       25.352413107523944
_cell_angle_alpha    90.0
_cell_angle_beta     95.64165921783764
_cell_angle_gamma    90.0

_space_group_name_H-M_alt    "P 1"
_space_group_IT_number       1

loop_
  _space_group_symop_operation_xyz
  'x, y, z'

loop_
  _atom_site_type_symbol
  _atom_site_label
  _atom_site_symmetry_multiplicity
  _atom_site_fract_x
  _atom_site_fract_y
  _atom_site_fract_z
  _atom_site_occupancy
  H   H1        1.0  0.10148490172230715  0.687611760268479  0.5467142967955803  1.0000
  H   H2        1.0  0.898515098008693  0.18761176007019384  0.9532857029849111  1.0000
  H   H3        1.0  0.898515097485998  0.31238823950995415  0.45328570300512866  1.0000
  H   H4        1.0  0.10148490119961205  0.8123882397082395  0.04671429681579777  1.0000
  H   H5        1.0  0.11235516331625335  0.9301787867162848  0.9956777540271707  1.0000
  H   H6        1.0  0.8876448364147468  0.43017878651799957  0.5043222457533206  1.0000
  H   H7        1.0  0.8876448378088819  0.06982121368028574  0.004322245813385776  1.0000
  H   H8        1.0  0.11235516279355826  0.5698212132604337  0.49567775404738823  1.0000
  H   H9        1.0  0.06306240618599485  0.30073397288299064  0.7750305884209373  1.0000
  H   H10       1.0  0.9369375935407143  0.800733973081276  0.7249694117539056  1.0000
  H   H11       1.0  0.9369375930180192  0.6992660268954426  0.22496941177412308  1.0000
  H   H12       1.0  0.06306240758012999  0.19926602669715732  0.2750305884810025  1.0000
  H   H13       1.0  0.9389601299743405  0.5387075357792837  0.6441352751888729  1.0000
  H   H14       1.0  0.06103986975665977  0.03870753619913572  0.8558647245916186  1.0000
  H   H15       1.0  0.0610398711507949  0.4612924639991496  0.3558647246516837  1.0000
  H   H16       1.0  0.9389601294516452  0.9612924641974349  0.14413527520909034  1.0000
  H   H17       1.0  0.6228713010513169  0.5397543463454149  0.5640301136820519  1.0000
  H   H18       1.0  0.3771286986753922  0.039754346765266825  0.9359698864927911  1.0000
  H   H19       1.0  0.3771287000738184  0.46024565343301843  0.43596988615850457  1.0000
  H   H20       1.0  0.6228713005286218  0.9602456536313038  0.06403011370226941  1.0000
  H   H21       1.0  0.5170912063205034  0.7322328299216824  0.713297888627697  1.0000
  H   H22       1.0  0.4829087934104968  0.2322328303415344  0.7867021111527943  1.0000
  H   H23       1.0  0.4829087928878016  0.2677671698567509  0.28670211117301186  1.0000
  H   H24       1.0  0.5170912077146386  0.7677671700550361  0.21329788868776214  1.0000
  H   H25       1.0  0.20007880157589586  0.7320045283289535  0.6351102088009838  1.0000
  H   H26       1.0  0.7999211981551044  0.23200452874880548  0.8648897909795077  1.0000
  H   H27       1.0  0.7999211995492393  0.2679954714494798  0.36488979103957275  1.0000
  H   H28       1.0  0.20007880105320078  0.7679954716477652  0.13511020882120128  1.0000
  H   H29       1.0  0.7219040393718804  0.8133609121233308  0.810662611573206  1.0000
  H   H30       1.0  0.2780959603548287  0.3133609119250455  0.6893373886016371  1.0000
  H   H31       1.0  0.2780959617532549  0.18663908827323977  0.1893373882673506  1.0000
  H   H32       1.0  0.7219040388491853  0.6866390884715251  0.3106626115934234  1.0000
  H   H33       1.0  0.4506574670127191  0.7402825747858623  0.8881109035244593  1.0000
  H   H34       1.0  0.5493425346308204  0.24028257458757704  0.6118890966902312  1.0000
  H   H35       1.0  0.5493425341081252  0.25971742499257094  0.11188909671044868  1.0000
  H   H36       1.0  0.450657466490024  0.7597174251908563  0.3881109035446769  1.0000
  H   H37       1.0  0.655998981167041  0.5653581278455871  0.8627512143572975  1.0000
  H   H38       1.0  0.344001018559668  0.06535812826543914  0.6372487858175455  1.0000
  H   H39       1.0  0.3440010180369729  0.43464187193284615  0.137248785837763  1.0000
  H   H40       1.0  0.6559989825611763  0.9346418721311315  0.3627512144173625  1.0000
  H   H41       1.0  0.3643805451683631  0.4614700332095619  0.7132559002293386  1.0000
  H   H42       1.0  0.635619454558346  0.9614700334078473  0.7867440999455044  1.0000
  H   H43       1.0  0.635619454039942  0.5385299665688714  0.28674409957137026  1.0000
  H   H44       1.0  0.3643805465624982  0.03852996637058607  0.21325590028940375  1.0000
  H   H45       1.0  0.6814361969842216  0.9206973981675737  0.8803291736908747  1.0000
  H   H46       1.0  0.3185638027424875  0.42069739858742566  0.6196708264839681  1.0000
  H   H47       1.0  0.3185638022197924  0.0793026016108596  0.11967082650418565  1.0000
  H   H48       1.0  0.6814361964615265  0.579302601809145  0.38032917371109226  1.0000
  H   H49       1.0  0.4099948059796699  0.8452395913772435  0.9590085323807169  1.0000
  H   H50       1.0  0.5900051937470394  0.34523959179709546  0.5409914677941259  1.0000
  H   H51       1.0  0.5900051932243442  0.15476040840118985  0.040991467814343444  1.0000
  H   H52       1.0  0.40999480545697475  0.6547604085994752  0.4590085324009345  1.0000
  H   H53       1.0  0.0030199053210398117  0.45932023514167764  0.8716307830175775  1.0000
  H   H54       1.0  0.9969800944099604  0.9593202347218256  0.6283692167629139  1.0000
  H   H55       1.0  0.9969800938872655  0.5406797652548929  0.1283692167831314  1.0000
  H   H56       1.0  0.0030199067151749394  0.04067976505660767  0.3716307830776426  1.0000
  H   H57       1.0  0.714454262261314  0.3568675851164184  0.7204185277057893  1.0000
  H   H58       1.0  0.28554573746539513  0.8568675846965663  0.7795814724690536  1.0000
  H   H59       1.0  0.2855457388595302  0.6431324152801522  0.2795814725291188  1.0000
  H   H60       1.0  0.7144542617386189  0.14313241508186691  0.22041852772600676  1.0000
  H   H61       1.0  0.8569909934345162  0.7687668964851732  0.6167324628326187  1.0000
  H   H62       1.0  0.14300900629648391  0.268766896286888  0.8832675369478727  1.0000
  H   H63       1.0  0.14300900577378883  0.23123310329326005  0.38326753696809013  1.0000
  H   H64       1.0  0.8569909948286515  0.7312331034915454  0.11673246289268388  1.0000
  H   H65       1.0  0.9099724072775348  0.7613382782292258  0.45455203416883994  1.0000
  H   H66       1.0  0.09002759332490531  0.2613382786490778  0.04544796569193408  1.0000
  H   H67       1.0  0.0900275919307702  0.23866172154920745  0.5454479656318689  1.0000
  H   H68       1.0  0.9099724078002299  0.7386617217474927  0.9545520341486226  1.0000
  H   H69       1.0  0.5059240633844623  0.8708760228894046  0.6072709259414903  1.0000
  H   H70       1.0  0.4940759363422468  0.37087602269111936  0.8927290742333527  1.0000
  H   H71       1.0  0.4940759358195517  0.12912397688902866  0.39272907425357007  1.0000
  H   H72       1.0  0.5059240628617673  0.6291239770873139  0.10727092596170783  1.0000
  H   H73       1.0  0.5505351147953355  0.8630241091580715  0.43772779981587434  1.0000
  H   H74       1.0  0.44946488388598343  0.36302410957792347  0.0622722003994036  1.0000
  H   H75       1.0  0.44946488440867866  0.13697589062036186  0.5622722003791861  1.0000
  H   H76       1.0  0.5505351153180306  0.6369758908186471  0.9377277997956569  1.0000
  C   C1        1.0  0.7757933678511488  0.580729705275235  0.6416643824818176  1.0000
  C   C2        1.0  0.2242066318755604  0.08072970507694974  0.8583356176930255  1.0000
  C   C3        1.0  0.22420663326969548  0.4192702951213355  0.3583356177530906  1.0000
  C   C4        1.0  0.7757933673284537  0.9192702953196209  0.141664382502035  1.0000
  C   C5        1.0  0.04036127987855714  0.8882471675347265  0.9242338389893638  1.0000
  C   C6        1.0  0.9596387217692732  0.3882471673364412  0.5757661608309752  1.0000
  C   C7        1.0  0.9596387212465781  0.11175283286184408  0.07576616085119262  1.0000
  C   C8        1.0  0.04036127935586203  0.6117528324419921  0.42423383900958145  1.0000
  C   C9        1.0  0.8781022930727148  0.4000709562624943  0.7971578639747263  1.0000
  C   C10       1.0  0.12189770665399434  0.9000709564607795  0.7028421362001168  1.0000
  C   C11       1.0  0.12189770804812947  0.599929043515939  0.20284213626018183  1.0000
  C   C12       1.0  0.8781022925500197  0.09992904393579102  0.29715786399494376  1.0000
  C   C13       1.0  0.598172688567578  0.5806380540583174  0.5973015134399347  1.0000
  C   C14       1.0  0.40182731116342224  0.08063805386003212  0.9026984863405567  1.0000
  C   C15       1.0  0.4018273106407271  0.4193619463382532  0.40269848636077427  1.0000
  C   C16       1.0  0.5981726880448829  0.9193619459184011  0.0973015134601521  1.0000
  C   C17       1.0  0.7533899334227  0.6364430212354384  0.6836481854771778  1.0000
  C   C18       1.0  0.24661006630400917  0.13644302103715317  0.8163518146976652  1.0000
  C   C19       1.0  0.24661006769814423  0.36355697854299485  0.3163518147577302  1.0000
  C   C20       1.0  0.753389932900005  0.8635569787412801  0.18364818549739534  1.0000
  C   C21       1.0  0.3909208589394079  0.6362862455455353  0.5938773656187639  1.0000
  C   C22       1.0  0.6090791407873012  0.13628624534724992  0.9061226345560791  1.0000
  C   C23       1.0  0.6090791402646061  0.36371375423289803  0.40612263457629655  1.0000
  C   C24       1.0  0.39092086033354306  0.8637137544311833  0.09387736567882901  1.0000
  C   C25       1.0  0.5410352389219015  0.689941930181277  0.6806444545581325  1.0000
  C   C26       1.0  0.45896476080909865  0.18994192998299175  0.8193555452223588  1.0000
  C   C27       1.0  0.4589647602864036  0.3100580702152936  0.3193555452425763  1.0000
  C   C28       1.0  0.5410352403160368  0.8100580697954416  0.18064445461819767  1.0000
  C   C29       1.0  0.9473742028032743  0.6394035348016935  0.7293127771695403  1.0000
  C   C30       1.0  0.05262579692772601  0.1394035346034083  0.7706872226109512  1.0000
  C   C31       1.0  0.05262579640503089  0.3605964649767397  0.2706872226311686  1.0000
  C   C32       1.0  0.9473742041974093  0.8605964651750251  0.22931277722960536  1.0000
  C   C33       1.0  0.3617454039088777  0.6897149612925588  0.6366495948510724  1.0000
  C   C34       1.0  0.6382545958178314  0.18971496171241087  0.8633504053237704  1.0000
  C   C35       1.0  0.6382545952951364  0.3102850384858744  0.363350405343988  1.0000
  C   C36       1.0  0.3617454053030129  0.8102850386841597  0.13664959491113754  1.0000
  C   C37       1.0  0.10792269591646753  0.7029037988815298  0.8063333917906319  1.0000
  C   C38       1.0  0.8920773038102416  0.20290379868324446  0.6936666083842111  1.0000
  C   C39       1.0  0.8920773032875464  0.29709620089690353  0.19366660840442856  1.0000
  C   C40       1.0  0.10792269539377243  0.7970962010951889  0.30633339181084934  1.0000
  C   C41       1.0  0.2825090245827685  0.5820231983647369  0.7808788975713987  1.0000
  C   C42       1.0  0.7174909770650619  0.08202319816645161  0.7191211022489405  1.0000
  C   C43       1.0  0.7174909765423668  0.4179768014136964  0.21912110226915793  1.0000
  C   C44       1.0  0.28250902406007344  0.9179768016119817  0.2808788975916161  1.0000
  C   C45       1.0  0.08778962670768978  0.7686586971146973  0.8455624444081378  1.0000
  C   C46       1.0  0.9122103730233105  0.26865869753454924  0.6544375553723536  1.0000
  C   C47       1.0  0.9122103725006154  0.23134130266373606  0.15443755539257112  1.0000
  C   C48       1.0  0.0877896281018249  0.7313413028620214  0.3455624444682029  1.0000
  C   C49       1.0  0.48504836715310157  0.5196246811851003  0.7875341766003158  1.0000
  C   C50       1.0  0.5149516325778986  0.019624680986815024  0.7124658231801757  1.0000
  C   C51       1.0  0.5149516339720337  0.4803753192114703  0.2124658232402408  1.0000
  C   C52       1.0  0.4850483666304065  0.9803753187916182  0.28753417662053327  1.0000
  C   C53       1.0  0.8734419667767844  0.821445517458471  0.8428225217846413  1.0000
  C   C54       1.0  0.12655803294992474  0.32144551787832304  0.6571774783902015  1.0000
  C   C55       1.0  0.12655803434405988  0.17855448231996224  0.15717747845026664  1.0000
  C   C56       1.0  0.8734419662540892  0.6785544825182476  0.342822521804859  1.0000
  C   C57       1.0  0.28142800467203494  0.7791325582523738  0.8873288184788637  1.0000
  C   C58       1.0  0.7185719950589653  0.27913255867222575  0.6126711813016277  1.0000
  C   C59       1.0  0.7185719945362703  0.2208674415260595  0.11267118132184512  1.0000
  C   C60       1.0  0.28142800606616997  0.7208674417243448  0.38732881853892887  1.0000
  C   C61       1.0  0.667537278021189  0.5186025695309162  0.8321455170679399  1.0000
  C   C62       1.0  0.3324627217098112  0.018602569332630898  0.6678544827125513  1.0000
  C   C63       1.0  0.3324627211871161  0.4813974308656544  0.16785448273276887  1.0000
  C   C64       1.0  0.6675372774984939  0.9813974304458023  0.3321455170881575  1.0000
  C   C65       1.0  0.5046000119717513  0.4599014251354729  0.7478768532500304  1.0000
  C   C66       1.0  0.49539998775495786  0.9599014253337582  0.7521231469248127  1.0000
  C   C67       1.0  0.4953999872322628  0.5400985746429604  0.25212314694503013  1.0000
  C   C68       1.0  0.5046000114490562  0.04009857444467512  0.2478768532702478  1.0000
  C   C69       1.0  0.8503171695981413  0.8811209105191112  0.8813366325109878  1.0000
  C   C70       1.0  0.14968283012856787  0.3811209109389632  0.6186633676638551  1.0000
  C   C71       1.0  0.149682831522703  0.11887908925932211  0.11866336772392017  1.0000
  C   C72       1.0  0.8503171690754462  0.6188790894576074  0.38133663253120537  1.0000
  C   C73       1.0  0.26033051254781175  0.838126772666449  0.9263153266394699  1.0000
  C   C74       1.0  0.7396694871831885  0.3381267724681637  0.5736846731410216  1.0000
  C   C75       1.0  0.7396694866604934  0.16187322773012158  0.07368467316123906  1.0000
  C   C76       1.0  0.26033051202511664  0.6618732273102697  0.4263153266596873  1.0000
  C   C77       1.0  0.8607286815705424  0.45966235002780725  0.8372388945438147  1.0000
  C   C78       1.0  0.13927131816045776  0.9596623502260926  0.6627611052366768  1.0000
  C   C79       1.0  0.13927131763776265  0.540337649750626  0.16276110525689425  1.0000
  C   C80       1.0  0.8607286810478473  0.04033765017047801  0.33723889456403217  1.0000
  C   C81       1.0  0.6976101383263368  0.40118055721518026  0.7522465779202157  1.0000
  C   C82       1.0  0.30238986140466334  0.9011805567953283  0.7477534218602758  1.0000
  C   C83       1.0  0.30238986279879854  0.5988194431813904  0.24775342192034092  1.0000
  C   C84       1.0  0.6976101378036417  0.09881944298310505  0.2522465779404331  1.0000
  C   C85       1.0  0.7865851707456981  0.7907740875422105  0.5774450773665973  1.0000
  C   C86       1.0  0.21341483089784138  0.2907740873439251  0.9225549228480933  1.0000
  C   C87       1.0  0.21341483037514625  0.2092259122362229  0.42255492286831076  1.0000
  C   C88       1.0  0.7865851702230029  0.7092259124345083  0.0774450773868148  1.0000
  C   C89       1.0  0.8130830927186181  0.7865345360271266  0.4871309699322694  1.0000
  C   C90       1.0  0.18691690787953094  0.28653453582884136  0.012869030322856141  1.0000
  C   C91       1.0  0.18691690840222608  0.21346546436944394  0.5128690303026386  1.0000
  C   C92       1.0  0.8130830932413133  0.7134654639495919  0.9871309699120518  1.0000
  C   C93       1.0  0.5881099973250454  0.8478800037809009  0.5723041040468088  1.0000
  C   C94       1.0  0.4118900024059548  0.3478800042007529  0.9276958957336827  1.0000
  C   C95       1.0  0.41189000188325964  0.1521199959975324  0.42769589575390016  1.0000
  C   C96       1.0  0.5881099968023503  0.6521199961958177  0.07230410406702623  1.0000
  C   C97       1.0  0.6145720060459736  0.8428270194358919  0.47777843519116087  1.0000
  C   C98       1.0  0.3854279945564666  0.34282701923760667  0.022221564669613118  1.0000
  C   C99       1.0  0.38542799316233145  0.15717298096067864  0.522221564609548  1.0000
  C   C100      1.0  0.6145720065686687  0.6571729805408266  0.9777784351709435  1.0000
  C   C101      1.0  0.4948918202464231  0.8739846365886098  0.5211143715149408  1.0000
  C   C102      1.0  0.5051081794802861  0.37398463639032453  0.978885628659902  1.0000
  C   C103      1.0  0.5051081789575909  0.12601536318982345  0.47888562868011963  1.0000
  C   C104      1.0  0.494891819723728  0.6260153633881087  0.0211143715351583  1.0000
  C   C105      1.0  0.28743464080404624  0.929121315136205  0.5128625257498173  1.0000
  C   C106      1.0  0.7125653589226628  0.4291213149379197  0.9871374744250258  1.0000
  C   C107      1.0  0.7125653583999678  0.07087868464222828  0.48713747444524325  1.0000
  C   C108      1.0  0.28743464220247245  0.5708786848405135  0.012862525415530821  1.0000
  C   C109      1.0  0.10159554838123679  0.9748608040887629  0.5045463800817424  1.0000
  C   C110      1.0  0.8984044513454723  0.4748608045086149  0.9954536200931007  1.0000
  C   C111      1.0  0.8984044508227772  0.025139195689670428  0.49545362011331817  1.0000
  C   C112      1.0  0.10159554977537191  0.5251391958879558  0.004546380141807409  1.0000
  N   N1        1.0  0.9538207289692732  0.707977362253406  0.7604226912174995  1.0000
  N   N2        1.0  0.04617927075743595  0.20797736205512077  0.7395773089573435  1.0000
  N   N3        1.0  0.04617927215157108  0.2920226375250273  0.23957730901740862  1.0000
  N   N4        1.0  0.9538207284508691  0.7920226377233125  0.2604226908433654  1.0000
  N   N5        1.0  0.2765982016365478  0.6416258397562927  0.8181177544029079  1.0000
  N   N6        1.0  0.7234017980944524  0.1416258401761448  0.6818822453775837  1.0000
  N   N7        1.0  0.7234017975717573  0.3583741600221405  0.18188224539780112  1.0000
  N   N8        1.0  0.2765982011138527  0.8583741602204258  0.3181177544231253  1.0000
  N   N9        1.0  0.11006945203007018  0.5760650112905242  0.7378732474961273  1.0000
  N   N10       1.0  0.8899305477009299  0.07606501109223894  0.7621267522843643  1.0000
  N   N11       1.0  0.8899305471782349  0.42393498848790906  0.26212675230458177  1.0000
  N   N12       1.0  0.11006945342420531  0.9239349886861943  0.23787324755619227  1.0000
  N   N13       1.0  0.8972111966408919  0.7598263280015753  0.5361469003708714  1.0000
  N   N14       1.0  0.10278880308581737  0.25982632780329007  0.9638530998039714  1.0000
  N   N15       1.0  0.10278880256741332  0.2401736717768579  0.46385309942983743  1.0000
  N   N16       1.0  0.8972111980350268  0.7401736719751432  0.03614690043093658  1.0000
  O   O1        1.0  0.22905417960526167  0.6377245298790403  0.5490073697775498  1.0000
  O   O2        1.0  0.7709458201257385  0.13772453029889226  0.9509926300029415  1.0000
  O   O3        1.0  0.7709458196030435  0.362275469899393  0.4509926300231591  1.0000
  O   O4        1.0  0.2290541809993968  0.8622754700976782  0.049007369837614945  1.0000
  O   O5        1.0  0.0018474602022848041  0.9434715270033854  0.9626398457607043  1.0000
  O   O6        1.0  0.9981525395287154  0.4434715268051001  0.5373601540197872  1.0000
  O   O7        1.0  0.9981525409228506  0.05652847277504791  0.037360154079852256  1.0000
  O   O8        1.0  0.0018474596795897038  0.5565284729733332  0.46263984578092177  1.0000
  O   O9        1.0  0.07089887424525612  0.344511448933172  0.8036994243444199  1.0000
  O   O10       1.0  0.9291011254814531  0.8445114491314573  0.6963005758304229  1.0000
  O   O11       1.0  0.9291011268755881  0.6554885508452613  0.1963005758904881  1.0000
  O   O12       1.0  0.07089887372256104  0.15548855126511332  0.3036994243646374  1.0000
