data_image0
_chemical_formula_structural       H76C108N16O12
_chemical_formula_sum              "H76 C108 N16 O12"
_cell_length_a       5.33044390248983
_cell_length_b       15.495875649745683
_cell_length_c       24.842551775984308
_cell_angle_alpha    90.0
_cell_angle_beta     90.94753532789842
_cell_angle_gamma    90.0

_space_group_name_H-M_alt    "P 1"
_space_group_IT_number       1

loop_
  _space_group_symop_operation_xyz
  'x, y, z'

loop_
  _atom_site_type_symbol
  _atom_site_label
  _atom_site_symmetry_multiplicity
  _atom_site_fract_x
  _atom_site_fract_y
  _atom_site_fract_z
  _atom_site_occupancy
  H   H1        1.0  0.09805720710379033  0.2551825175536238  0.55571292234149  1.0000
  H   H2        1.0  0.40194279275987205  0.7551825172391632  0.9442870777988426  1.0000
  H   H3        1.0  0.901942792983079  0.744817482462788  0.4442870776575089  1.0000
  H   H4        1.0  0.5980572073269973  0.2448174827772486  0.05571292220015622  1.0000
  H   H5        1.0  0.42378315482216644  0.9050552377290256  0.9559711202372797  1.0000
  H   H6        1.0  0.07621684690931162  0.40505523804348625  0.5440288795053391  1.0000
  H   H7        1.0  0.576216845264703  0.09494476228738619  0.0440288797617191  1.0000
  H   H8        1.0  0.9237831531775578  0.5949447619729256  0.4559711204936599  1.0000
  H   H9        1.0  0.1865676102846843  0.6190186083583747  0.7694806027917392  1.0000
  H   H10       1.0  0.3134323895789781  0.11901860802750236  0.7305193973485931  1.0000
  H   H11       1.0  0.8134323898021852  0.38098139165803707  0.23051939720725947  1.0000
  H   H12       1.0  0.6865676105078913  0.8809813919889095  0.2694806026504056  1.0000
  H   H13       1.0  0.8712104671061282  0.46012106583450907  0.7127404987406462  1.0000
  H   H14       1.0  0.628789533024176  0.9601210661653815  0.7872595012578522  1.0000
  H   H15       1.0  0.1287895329807413  0.5398789341819028  0.2872595012583527  1.0000
  H   H16       1.0  0.3712104670626934  0.03987893385103035  0.21274049874114676  1.0000
  H   H17       1.0  0.7234248803873379  0.1815824064157471  0.7170349112606189  1.0000
  H   H18       1.0  0.7765751178667122  0.6815824061012865  0.782965088733032  1.0000
  H   H19       1.0  0.27657511969953147  0.8184175936006648  0.2829650887383799  1.0000
  H   H20       1.0  0.22342488034390323  0.31841759391512536  0.21703491126111954  1.0000
  H   H21       1.0  0.013372586108948719  0.19132682056910139  0.6411620563989319  1.0000
  H   H22       1.0  0.4866274137462754  0.6913268202546408  0.8588379433388398  1.0000
  H   H23       1.0  0.9866274139779206  0.8086731794473104  0.35883794360006693  1.0000
  H   H24       1.0  0.5133725863405939  0.30867317976177105  0.1411620566601591  1.0000
  H   H25       1.0  0.5676977730129258  0.3964888915523037  0.5721212922397224  1.0000
  H   H26       1.0  0.9323022271173782  0.8964888912378431  0.9278787077587758  1.0000
  H   H27       1.0  0.4323022270739436  0.6035111084641082  0.4278787077592764  1.0000
  H   H28       1.0  0.06769777296949114  0.10351110877856874  0.07212129224022303  1.0000
  H   H29       1.0  0.28287668434008173  0.38961712499926304  0.6509168687777891  1.0000
  H   H30       1.0  0.21712331552358072  0.8896171246848025  0.8490831313625434  1.0000
  H   H31       1.0  0.717123315755226  0.6103828750171489  0.34908313162377075  1.0000
  H   H32       1.0  0.7828766845632886  0.11038287533160943  0.1509168686364554  1.0000
  H   H33       1.0  0.9039040637011431  0.18374631833385482  0.8978010911503865  1.0000
  H   H34       1.0  0.596095936429161  0.6837463186647272  0.6021989088481117  1.0000
  H   H35       1.0  0.09609593638572636  0.8162536816825571  0.10219890884861225  1.0000
  H   H36       1.0  0.4039040636577083  0.3162536813516846  0.3978010911508872  1.0000
  H   H37       1.0  0.9590070475801208  0.06685582044000221  0.9663334339709707  1.0000
  H   H38       1.0  0.5409929525501832  0.5668558201255417  0.5336665660275275  1.0000
  H   H39       1.0  0.040992952506748545  0.9331441795764097  0.03366656602802804  1.0000
  H   H40       1.0  0.4590070475366861  0.43314417989087023  0.4663334339714713  1.0000
  H   H41       1.0  0.6325319773559155  0.9849200403366996  0.8871486028914981  1.0000
  H   H42       1.0  0.8674680227743885  0.48492004000582717  0.6128513971070001  1.0000
  H   H43       1.0  0.36746802273095386  0.015079959679712266  0.11285139710750065  1.0000
  H   H44       1.0  0.1325319773124808  0.5150799600105846  0.3871486028919987  1.0000
  H   H45       1.0  0.5784337660042267  0.10343169538962482  0.8206607661485118  1.0000
  H   H46       1.0  0.9215662341260774  0.6034316950751643  0.6793392338499863  1.0000
  H   H47       1.0  0.42156623408264277  0.896568304626787  0.17933923385048697  1.0000
  H   H48       1.0  0.07843376596079192  0.3965683049412476  0.32066076614901246  1.0000
  H   H49       1.0  0.512339002980487  0.5631350507219135  0.7162045602947505  1.0000
  H   H50       1.0  0.9876609971498174  0.06313505103637407  0.7837954397037477  1.0000
  H   H51       1.0  0.48766099710638244  0.4368649492944984  0.2837954397042483  1.0000
  H   H52       1.0  0.012339002937052215  0.9368649489800378  0.21620456029525112  1.0000
  H   H53       1.0  0.33197229489762503  0.4674481774199627  0.8737139916394212  1.0000
  H   H54       1.0  0.1680277049575991  0.9674481771055021  0.6262860080983502  1.0000
  H   H55       1.0  0.6680277051892444  0.5325518225964492  0.12628600835957748  1.0000
  H   H56       1.0  0.8319722932530165  0.032551822910909745  0.37371399189580146  1.0000
  H   H57       1.0  0.6862293109106284  0.36181342421213963  0.8683724519261526  1.0000
  H   H58       1.0  0.8137706892196758  0.8618134245430121  0.6316275480723457  1.0000
  H   H59       1.0  0.313770689176241  0.6381865751589393  0.13162754807284627  1.0000
  H   H60       1.0  0.1862293108671937  0.13818657547339977  0.3683724519266531  1.0000
  H   H61       1.0  0.3168206224416932  0.12958311781709186  0.6179368788567626  1.0000
  H   H62       1.0  0.18317937742196921  0.6295831175026313  0.8820631212835699  1.0000
  H   H63       1.0  0.6831793776451761  0.87041688219932  0.3820631211422362  1.0000
  H   H64       1.0  0.8168206226649001  0.37041688186844757  0.1179368787154289  1.0000
  H   H65       1.0  0.6686641617410402  0.031971041920959835  0.5981466574720585  1.0000
  H   H66       1.0  0.831335838389264  0.5319710416064992  0.9018533425264398  1.0000
  H   H67       1.0  0.33133583834582925  0.968028958095452  0.4018533425269403  1.0000
  H   H68       1.0  0.16866416169760548  0.4680289584099126  0.09814665747255905  1.0000
  H   H69       1.0  0.6881115669369914  0.14482273998093362  0.43830435438330334  1.0000
  H   H70       1.0  0.8118884333730849  0.6448227396664731  0.06169564547436174  1.0000
  H   H71       1.0  0.311888433149878  0.8551772600354782  0.5616956456156955  1.0000
  H   H72       1.0  0.1881115667137844  0.3551772603499388  0.9383043545246371  1.0000
  H   H73       1.0  0.32978654983563277  0.2372879199027611  0.46502588394456884  1.0000
  H   H74       1.0  0.17021345020780193  0.7372879202336335  0.03497411605493062  1.0000
  H   H75       1.0  0.6702134502512366  0.7627120801136508  0.5349741160544301  1.0000
  H   H76       1.0  0.8297865498790675  0.26271207978277833  0.9650258839440682  1.0000
  C   C1        1.0  0.7524483543988204  0.4628590246926583  0.7478793244561732  1.0000
  C   C2        1.0  0.7475516457314837  0.9628590250235307  0.752120675542325  1.0000
  C   C3        1.0  0.24755164568804894  0.5371409753237536  0.2521206755428255  1.0000
  C   C4        1.0  0.25244835435538576  0.037140974992881125  0.24787932445667388  1.0000
  C   C5        1.0  0.3139086021888666  0.28179486327200004  0.734987548447354  1.0000
  C   C6        1.0  0.1860913976663575  0.7817948629575395  0.7650124512904175  1.0000
  C   C7        1.0  0.6860913978980028  0.7182051367444118  0.2650124515516449  1.0000
  C   C8        1.0  0.813908602420512  0.21820513705887237  0.23498754870858124  1.0000
  C   C9        1.0  0.005985242816286936  0.3420429370886819  0.7854494366602351  1.0000
  C   C10       1.0  0.49401475703893716  0.8420429367742213  0.7145505630775364  1.0000
  C   C11       1.0  0.9940147572705825  0.6579570629277299  0.21455056333876366  1.0000
  C   C12       1.0  0.5059852430479322  0.15795706324219058  0.28544943692146246  1.0000
  C   C13       1.0  0.20008219734496788  0.2191995842490996  0.814549224732288  1.0000
  C   C14       1.0  0.29991780251869454  0.719199583934639  0.6854507754080447  1.0000
  C   C15       1.0  0.7999178027419015  0.7808004157673122  0.18545077526671097  1.0000
  C   C16       1.0  0.7000821975681748  0.2808004160817728  0.3145492245909542  1.0000
  C   C17       1.0  0.48196119350420624  0.28486224204260735  0.688959152398339  1.0000
  C   C18       1.0  0.018038806359456275  0.7848622423734798  0.8110408477419935  1.0000
  C   C19       1.0  0.5180388065826631  0.7151377579738045  0.31104084760065975  1.0000
  C   C20       1.0  0.9819611937274132  0.2151377576429321  0.18895915225700535  1.0000
  C   C21       1.0  0.6889879848280328  0.2290098836756115  0.6854053810313921  1.0000
  C   C22       1.0  0.8110120153022713  0.7290098840064839  0.8145946189671062  1.0000
  C   C23       1.0  0.3110120152588366  0.7709901163408003  0.3145946189676067  1.0000
  C   C24       1.0  0.18898798478459808  0.2709901160099279  0.1854053810318927  1.0000
  C   C25       1.0  0.8520236805071894  0.23415063414370832  0.642548280848134  1.0000
  C   C26       1.0  0.6479763196231149  0.7341506344745807  0.8574517191503642  1.0000
  C   C27       1.0  0.14797631957968013  0.7658493658727036  0.35745171915086477  1.0000
  C   C28       1.0  0.35202368046375454  0.26584936554183114  0.1425482808486347  1.0000
  C   C29       1.0  0.8103102538245905  0.2954812385884851  0.6017250487766843  1.0000
  C   C30       1.0  0.6896897444294596  0.7954812382740245  0.8982749512169668  1.0000
  C   C31       1.0  0.18968974438602493  0.7045187614279268  0.3982749512174673  1.0000
  C   C32       1.0  0.31031025378115584  0.2045187617423874  0.10172504877718494  1.0000
  C   C33       1.0  0.6031846378657765  0.3512065986467384  0.6048360333588586  1.0000
  C   C34       1.0  0.8968153622645276  0.851206598332278  0.8951639666396396  1.0000
  C   C35       1.0  0.39681536222109287  0.6487934013696735  0.39516396664014025  1.0000
  C   C36       1.0  0.1031846378223418  0.14879340168413396  0.10483603335935918  1.0000
  C   C37       1.0  0.44265620120392823  0.3462223659550372  0.647979053567958  1.0000
  C   C38       1.0  0.05734379865973425  0.8462223662859096  0.8520209465723746  1.0000
  C   C39       1.0  0.5573437988829412  0.6537776340613746  0.35202094643104087  1.0000
  C   C40       1.0  0.9426562014271351  0.15377763373050224  0.14797905342662426  1.0000
  C   C41       1.0  0.237335782392756  0.15149046062708477  0.8549703807435776  1.0000
  C   C42       1.0  0.26266421747090646  0.6514904603126241  0.645029619396755  1.0000
  C   C43       1.0  0.7626642176941134  0.848509539389327  0.14502961925542138  1.0000
  C   C44       1.0  0.7373357826159629  0.3485095397037877  0.3549703806022438  1.0000
  C   C45       1.0  0.06594441615913177  0.1410483059752658  0.8968877317546217  1.0000
  C   C46       1.0  0.4340555837045306  0.6410483063061382  0.6031122683857109  1.0000
  C   C47       1.0  0.9340555839277376  0.8589516940411461  0.10311226824437719  1.0000
  C   C48       1.0  0.5659444163823387  0.35895169371027363  0.39688773161328794  1.0000
  C   C49       1.0  0.09496460828442482  0.0757858779035358  0.9345799185339787  1.0000
  C   C50       1.0  0.40503539345549167  0.5757858782344082  0.5654200816112012  1.0000
  C   C51       1.0  0.9050353918024446  0.9242141221128761  0.06542008146502022  1.0000
  C   C52       1.0  0.5949646066313778  0.42421412178200363  0.4345799183877977  1.0000
  C   C53       1.0  0.2968174472007236  0.017766277700125854  0.9306118850253863  1.0000
  C   C54       1.0  0.20318255266293883  0.5177662780309983  0.5693881151149462  1.0000
  C   C55       1.0  0.7031825528861457  0.9822337223162859  0.06938811497361255  1.0000
  C   C56       1.0  0.7968174455476766  0.48223372198541353  0.4306118848792054  1.0000
  C   C57       1.0  0.47241719659623976  0.02836361557968577  0.8895284852081297  1.0000
  C   C58       1.0  0.027582803267422663  0.5283636159105582  0.6104715149322028  1.0000
  C   C59       1.0  0.5275828034906296  0.9716363844367261  0.11047151479086907  1.0000
  C   C60       1.0  0.9724171968194467  0.4716363841058537  0.38952848506679605  1.0000
  C   C61       1.0  0.4420959321242721  0.09455248435889754  0.8523416356692973  1.0000
  C   C62       1.0  0.05790406773939035  0.59455248468977  0.6476583644710352  1.0000
  C   C63       1.0  0.5579040679625973  0.9054475156575144  0.1476583643297015  1.0000
  C   C64       1.0  0.942095932347479  0.4054475153266419  0.35234163552796355  1.0000
  C   C65       1.0  0.802927341185108  0.40498695923021266  0.7902370161585451  1.0000
  C   C66       1.0  0.6970726589451963  0.9049869595610851  0.7097629838399532  1.0000
  C   C67       1.0  0.19707265890176157  0.5950130407861992  0.20976298384045372  1.0000
  C   C68       1.0  0.30292734114167313  0.0950130404553268  0.29023701615904574  1.0000
  C   C69       1.0  0.5548290762362743  0.5207266541360268  0.7501383838744685  1.0000
  C   C70       1.0  0.9451709238940298  0.020726654450487353  0.7498616161240297  1.0000
  C   C71       1.0  0.4451709238505951  0.47927334588038506  0.24986161612453034  1.0000
  C   C72       1.0  0.05482907619283954  0.9792733455659245  0.25013838387496906  1.0000
  C   C73       1.0  0.4022238663808517  0.5227509024398337  0.795761969755844  1.0000
  C   C74       1.0  0.0977761334743724  0.022750902108961225  0.7042380299819275  1.0000
  C   C75       1.0  0.5977761337060177  0.4772490975765782  0.20423803024315487  1.0000
  C   C76       1.0  0.902223866612497  0.9772490979074506  0.2957619700170712  1.0000
  C   C77       1.0  0.452515545489356  0.465674824263218  0.8387333863795409  1.0000
  C   C78       1.0  0.04748445437430646  0.9656748239487575  0.6612666137607917  1.0000
  C   C79       1.0  0.5474844545975134  0.5343251757531939  0.16126661361945782  1.0000
  C   C80       1.0  0.9525155457125629  0.03432517606765446  0.3387333862382072  1.0000
  C   C81       1.0  0.6489857467483952  0.40720843485237695  0.8357072210490408  1.0000
  C   C82       1.0  0.8510142533819091  0.9072084351832495  0.6642927789494575  1.0000
  C   C83       1.0  0.3510142533384743  0.5927915651640349  0.16429277894995803  1.0000
  C   C84       1.0  0.1489857467049604  0.09279156483316245  0.33570722104954137  1.0000
  C   C85       1.0  0.39949433995962363  0.13081928222838246  0.5781569597859034  1.0000
  C   C86       1.0  0.10050565989560051  0.6308192825592549  0.9218430399518681  1.0000
  C   C87       1.0  0.6005056601272457  0.8691807177880294  0.42184304021309543  1.0000
  C   C88       1.0  0.8994943401912688  0.36918071745715697  0.07815696004713071  1.0000
  C   C89       1.0  0.5983684446785081  0.07601638052763621  0.5672540890887525  1.0000
  C   C90       1.0  0.901631555451796  0.5760163808585087  0.9327459109097458  1.0000
  C   C91       1.0  0.40163155540836126  0.9239836194887756  0.43274591091024633  1.0000
  C   C92       1.0  0.09836844463507344  0.4239836191579032  0.06725408908925312  1.0000
  C   C93       1.0  0.709568810182226  0.07951625244361213  0.5162996005578273  1.0000
  C   C94       1.0  0.7904311899480782  0.5795162521291516  0.9837003994406709  1.0000
  C   C95       1.0  0.29043118990464345  0.9204837475727997  0.48370039944117144  1.0000
  C   C96       1.0  0.20956881013879122  0.4204837478872603  0.016299600558327958  1.0000
  C   C97       1.0  0.6106813783850671  0.13886851305723513  0.4784234151493987  1.0000
  C   C98       1.0  0.8893186219250093  0.6388685127427746  0.02157658470826644  1.0000
  C   C99       1.0  0.3893186217018023  0.8611314869591767  0.5215765848496001  1.0000
  C   C100      1.0  0.11068137816186013  0.36113148727363736  0.9784234152907324  1.0000
  C   C101      1.0  0.41036300539221277  0.19057665192663487  0.49319463609907443  1.0000
  C   C102      1.0  0.0896369946512219  0.6905766522575073  0.00680536390042499  1.0000
  C   C103      1.0  0.5896369946946566  0.809423348089777  0.5068053638999244  1.0000
  C   C104      1.0  0.9103630054356475  0.30942334775890457  0.9931946360985738  1.0000
  C   C105      1.0  0.9127329926287292  0.02435124471369857  0.5042865283008143  1.0000
  C   C106      1.0  0.587267005625321  0.524351245044571  0.9957134716928367  1.0000
  C   C107      1.0  0.0872670055818862  0.9756487553027133  0.49571347169333735  1.0000
  C   C108      1.0  0.41273299446154843  0.47564875497184084  0.004286528306162063  1.0000
  N   N1        1.0  0.32905752627712564  0.2123938501051417  0.7682151091760747  1.0000
  N   N2        1.0  0.17094247358653683  0.7123938504360141  0.7317848909642578  1.0000
  N   N3        1.0  0.6709424738097438  0.7876061499112702  0.23178489082292408  1.0000
  N   N4        1.0  0.8290575265003326  0.28760614958039776  0.268215109034741  1.0000
  N   N5        1.0  0.03754677024752104  0.28306833373898355  0.8250483646487841  1.0000
  N   N6        1.0  0.46245322961614144  0.783068333424523  0.6749516354915486  1.0000
  N   N7        1.0  0.9624532298393483  0.7169316662774283  0.17495163535021482  1.0000
  N   N8        1.0  0.537546770470728  0.21693166659188887  0.32504836450745034  1.0000
  N   N9        1.0  0.15140901019772476  0.3466486742288848  0.7416388361881125  1.0000
  N   N10       1.0  0.34859098966593766  0.8466486745597572  0.7583611639522201  1.0000
  N   N11       1.0  0.8485909898891446  0.6533513257875271  0.2583611638108863  1.0000
  N   N12       1.0  0.6514090104209317  0.15335132545665464  0.24163883604677883  1.0000
  N   N13       1.0  0.30596634732263306  0.18734300375259172  0.5421139044755056  1.0000
  N   N14       1.0  0.1940336525410294  0.6873430034381312  0.9578860956648269  1.0000
  N   N15       1.0  0.6940336527642363  0.8126569962638202  0.45788609552349335  1.0000
  N   N16       1.0  0.8059663475458401  0.3126569965782808  0.042113904334171816  1.0000
  O   O1        1.0  0.9617440919744534  0.3040710622943938  0.5587734482635455  1.0000
  O   O2        1.0  0.5382559081558506  0.8040710619799333  0.9412265517349527  1.0000
  O   O3        1.0  0.03825590811241596  0.695928937722018  0.44122655173545333  1.0000
  O   O4        1.0  0.46174409193101873  0.19592893803647862  0.05877344826404605  1.0000
  O   O5        1.0  0.3088949313867058  0.9526702887708239  0.9668225229695998  1.0000
  O   O6        1.0  0.1911050684685183  0.45267028843995155  0.5331774767681717  1.0000
  O   O7        1.0  0.6911050687001635  0.0473297112455879  0.03317747702939907  1.0000
  O   O8        1.0  0.8088949316183511  0.5473297115764604  0.466822523230827  1.0000
  O   O9        1.0  0.2053631201927495  0.5768124997922717  0.8005112997945147  1.0000
  O   O10       1.0  0.2946368796624747  0.07681249946139924  0.6994886999432567  1.0000
  O   O11       1.0  0.7946368798941199  0.4231875002241402  0.199488700204484  1.0000
  O   O12       1.0  0.7053631204243946  0.9231875005550126  0.3005113000557421  1.0000
