data_image0
_chemical_formula_structural       H76C104N16O12I4
_chemical_formula_sum              "H76 C104 N16 O12 I4"
_cell_length_a       5.6884138981358
_cell_length_b       15.40668238417455
_cell_length_c       25.018702455182297
_cell_angle_alpha    90.0
_cell_angle_beta     90.0
_cell_angle_gamma    90.0

_space_group_name_H-M_alt    "P 1"
_space_group_IT_number       1

loop_
  _space_group_symop_operation_xyz
  'x, y, z'

loop_
  _atom_site_type_symbol
  _atom_site_label
  _atom_site_symmetry_multiplicity
  _atom_site_fract_x
  _atom_site_fract_y
  _atom_site_fract_z
  _atom_site_occupancy
  H   H1        1.0  0.8280019710843407  0.5658354123633133  0.4339804224239849  1.0000
  H   H2        1.0  0.6719980294072375  0.4341645873657297  0.933980422120566  1.0000
  H   H3        1.0  0.17199802924337815  0.06583541249879177  0.06601957767229719  1.0000
  H   H4        1.0  0.3280019709204813  0.9341645872302512  0.5660195777685793  1.0000
  H   H5        1.0  0.20439841945766984  0.20821120537248408  0.046417285312070684  1.0000
  H   H6        1.0  0.2956015807061895  0.7917887950056278  0.5464172854083528  1.0000
  H   H7        1.0  0.795601580870049  0.7082112052370056  0.45358271438451037  1.0000
  H   H8        1.0  0.7043984178635699  0.2917887944920374  0.9535827144807923  1.0000
  H   H9        1.0  0.9660196811277839  0.9114356335679302  0.22935597320761172  1.0000
  H   H10       1.0  0.5339803193637942  0.08856436616111273  0.7293559729041927  1.0000
  H   H11       1.0  0.03398031919993482  0.41143563370340874  0.27064402688867034  1.0000
  H   H12       1.0  0.4660196809639246  0.5885643660256341  0.7706440269849524  1.0000
  H   H13       1.0  0.42975970169842215  0.4805274967961022  0.2810604915501308  1.0000
  H   H14       1.0  0.07024029846543726  0.5194725029329407  0.7810604916464128  1.0000
  H   H15       1.0  0.5702402986292967  0.9805274966606237  0.21893950854615127  1.0000
  H   H16       1.0  0.9297597018622815  0.019472503068419265  0.7189395082427323  1.0000
  H   H17       1.0  0.7218196800597818  0.4960306534163324  0.3535480437422849  1.0000
  H   H18       1.0  0.7781803186738371  0.5039693463127105  0.853548043838567  1.0000
  H   H19       1.0  0.2781803185099776  0.9960306532808539  0.1464519563539972  1.0000
  H   H20       1.0  0.2218196816538818  0.003969346448189047  0.6464519560505783  1.0000
  H   H21       1.0  0.3157029959772325  0.7046004888859538  0.4215849062873851  1.0000
  H   H22       1.0  0.1842970041866269  0.29539951084308913  0.9215849063836671  1.0000
  H   H23       1.0  0.6842970043504862  0.20460048902143235  0.07841509380889694  1.0000
  H   H24       1.0  0.8157029943831327  0.7953995107076106  0.578415093905179  1.0000
  H   H25       1.0  0.028812880520827252  0.6926452927309921  0.3458716888096485  1.0000
  H   H26       1.0  0.47118711964303217  0.30735470699805084  0.8458716885062295  1.0000
  H   H27       1.0  0.9711871198068915  0.1926452928664706  0.15412831128663354  1.0000
  H   H28       1.0  0.5288128806846867  0.8073547075116413  0.6541283113829156  1.0000
  H   H29       1.0  0.6286778659288456  0.7597060819545869  0.2845487587836668  1.0000
  H   H30       1.0  0.8713221345627327  0.24029391842352507  0.7845487588799488  1.0000
  H   H31       1.0  0.37132213439887324  0.2597060814409964  0.21545124131261523  1.0000
  H   H32       1.0  0.12867786576498613  0.7402939182880466  0.7154512414088972  1.0000
  H   H33       1.0  0.2878879893983595  0.8611950937360012  0.2809633793995565  1.0000
  H   H34       1.0  0.2121120107654999  0.1388049059930417  0.7809633794958385  1.0000
  H   H35       1.0  0.7121120091713999  0.36119509387147974  0.21903662069672553  1.0000
  H   H36       1.0  0.787887989562219  0.6388049065066321  0.7190366207930075  1.0000
  H   H37       1.0  0.09519459900368041  0.7558717723656075  0.127237924736605  1.0000
  H   H38       1.0  0.404805401160179  0.24412822736343545  0.627237924433186  1.0000
  H   H39       1.0  0.9048054013240384  0.255871772501086  0.372762075359677  1.0000
  H   H40       1.0  0.5951945991675398  0.7441282278770259  0.8727620754559591  1.0000
  H   H41       1.0  0.43451000300980447  0.6531216013342329  0.13237937282850457  1.0000
  H   H42       1.0  0.06548999715405492  0.34687839839480994  0.6323793729247866  1.0000
  H   H43       1.0  0.565489995559955  0.1531216014697115  0.36762062726777744  1.0000
  H   H44       1.0  0.9345100031736638  0.8468783989084004  0.8676206273640595  1.0000
  H   H45       1.0  0.6478420304837007  0.4681884366883095  0.1038286243922266  1.0000
  H   H46       1.0  0.8521579700078774  0.5318115630407334  0.6038286244885087  1.0000
  H   H47       1.0  0.352157969844018  0.9681884365528309  0.3961713757040554  1.0000
  H   H48       1.0  0.1478420303198414  0.03181156317621192  0.8961713758003375  1.0000
  H   H49       1.0  0.727913489445094  0.35111297975198874  0.0360702507101072  1.0000
  H   H50       1.0  0.7720865110464841  0.6488870199770541  0.5360702508063893  1.0000
  H   H51       1.0  0.2720865108826247  0.8511129802655792  0.46392974938617487  1.0000
  H   H52       1.0  0.2279134892812347  0.14888702011253274  0.9639297494824569  1.0000
  H   H53       1.0  0.38102218101785834  0.29211178356106055  0.11448057648596112  1.0000
  H   H54       1.0  0.11897781914600104  0.7078882168170514  0.6144805765822431  1.0000
  H   H55       1.0  0.6189778193098604  0.7921117834255821  0.3855194236103209  1.0000
  H   H56       1.0  0.8810221811817177  0.20788821695252993  0.8855194233069019  1.0000
  H   H57       1.0  0.3002939484695036  0.40725400664097405  0.18163079752598182  1.0000
  H   H58       1.0  0.1997060516943558  0.5927459937371379  0.6816307972225629  1.0000
  H   H59       1.0  0.6997060518582152  0.9072540065054955  0.3183692025703002  1.0000
  H   H60       1.0  0.8002939486333631  0.09274599387261642  0.8183692026665823  1.0000
  H   H61       1.0  0.050231638399878355  0.5722307003002676  0.5196877413323577  1.0000
  H   H62       1.0  0.449768361763981  0.4277692994287753  0.019687741236075668  1.0000
  H   H63       1.0  0.9497683619278404  0.07223070043574621  0.9803122589564884  1.0000
  H   H64       1.0  0.5502316385637378  0.9277692992932968  0.4803122588602064  1.0000
  H   H65       1.0  0.37585931654879706  0.48247167979754885  0.5560345331625487  1.0000
  H   H66       1.0  0.12414068361506236  0.5175283199314941  0.05603453346596767  1.0000
  H   H67       1.0  0.6241406837789217  0.9824716803111393  0.9439654667265964  1.0000
  H   H68       1.0  0.8758593167126565  0.0175283200669726  0.4439654666303144  1.0000
  H   H69       1.0  0.37127174601203417  0.3413378830605235  0.4057620765179699  1.0000
  H   H70       1.0  0.1287282541518252  0.6586621173175884  0.9057620766142519  1.0000
  H   H71       1.0  0.6287282543156847  0.841337882925045  0.09423792357831216  1.0000
  H   H72       1.0  0.8712717461758935  0.15866211680399794  0.5942379236745942  1.0000
  H   H73       1.0  0.03646309212273996  0.4324851005459989  0.37772597947190956  1.0000
  H   H74       1.0  0.4635369080411194  0.567514899183044  0.8777259795681915  1.0000
  H   H75       1.0  0.9635369082049788  0.9324851004105204  0.12227402062437254  1.0000
  H   H76       1.0  0.5364630922865994  0.06751489931852257  0.6222740203209536  1.0000
  C   C1        1.0  0.041941777492349466  0.5795594254069771  0.26440249416810935  1.0000
  C   C2        1.0  0.4580582226715099  0.4204405743220657  0.7644024938646904  1.0000
  C   C3        1.0  0.9580582228353692  0.07955942554245576  0.2355975059281727  1.0000
  C   C4        1.0  0.5419417776562089  0.9204405748356562  0.7355975060244547  1.0000
  C   C5        1.0  0.7444974303624236  0.6368541354547884  0.2142882525424293  1.0000
  C   C6        1.0  0.7555025701291546  0.36314586427425455  0.7142882522390103  1.0000
  C   C7        1.0  0.2555025699652952  0.13685413559026688  0.28571174755385276  1.0000
  C   C8        1.0  0.24449743019856415  0.863145864138776  0.7857117476501349  1.0000
  C   C9        1.0  0.9258660347704304  0.5126909047020769  0.18714664393117442  1.0000
  C   C10       1.0  0.5741339639631885  0.4873090956760351  0.6871466440274565  1.0000
  C   C11       1.0  0.07413396379932911  0.012690904188486373  0.3128533561651076  1.0000
  C   C12       1.0  0.42586603636453024  0.9873090955405566  0.8128533558616888  1.0000
  C   C13       1.0  0.2088711847057011  0.5855895815225748  0.3087872779909005  1.0000
  C   C14       1.0  0.2911288154581583  0.4144104182064681  0.8087872780871825  1.0000
  C   C15       1.0  0.7911288156220176  0.08558958165805337  0.19121272210538157  1.0000
  C   C16       1.0  0.7088711848695605  0.9144104180709896  0.6912127222016635  1.0000
  C   C17       1.0  0.4049176556499954  0.5300673919512064  0.3116059545440242  1.0000
  C   C18       1.0  0.09508234451386396  0.4699326077778364  0.8116059546403063  1.0000
  C   C19       1.0  0.5950823446777234  0.030067392086685064  0.1883940455522579  1.0000
  C   C20       1.0  0.9049176558138549  0.9699326076423579  0.6883940452488388  1.0000
  C   C21       1.0  0.5687235770695614  0.5384448470568286  0.35234553014055453  1.0000
  C   C22       1.0  0.9312764234220168  0.46155515267221436  0.8523455302368366  1.0000
  C   C23       1.0  0.43127642325815735  0.03844484719230709  0.1476544699557275  1.0000
  C   C24       1.0  0.06872357690570204  0.9615551525367358  0.6476544700520096  1.0000
  C   C25       1.0  0.5378099633366316  0.6024892075100259  0.39178851371525203  1.0000
  C   C26       1.0  0.9621900371549467  0.3975107922190171  0.8917885138115341  1.0000
  C   C27       1.0  0.46219003699108724  0.10248920764550438  0.10821148638102997  1.0000
  C   C28       1.0  0.037809963172772174  0.8975107927326076  0.608211486477312  1.0000
  C   C29       1.0  0.3412050766270848  0.6575930876855557  0.3895728152752829  1.0000
  C   C30       1.0  0.15879492353677455  0.34240691204348733  0.889572815371565  1.0000
  C   C31       1.0  0.658794923700634  0.15759308782103418  0.11042718482099913  1.0000
  C   C32       1.0  0.8412050767909443  0.8424069125570777  0.6104271849172812  1.0000
  C   C33       1.0  0.180494058341373  0.6496707428901977  0.3482829073813576  1.0000
  C   C34       1.0  0.31950594182248643  0.3503292574879143  0.8482829074776397  1.0000
  C   C35       1.0  0.8195059419863459  0.1496707423766071  0.15171709271492445  1.0000
  C   C36       1.0  0.6804940585052324  0.8503292573524358  0.6517170924115054  1.0000
  C   C37       1.0  0.5530469769492319  0.6997676106488792  0.2090735284681608  1.0000
  C   C38       1.0  0.9469530235423463  0.30023238908016386  0.7090735285644428  1.0000
  C   C39       1.0  0.4469530233784869  0.1997676107843576  0.29092647122842025  1.0000
  C   C40       1.0  0.05304697678537249  0.8002323889446854  0.7909264713247023  1.0000
  C   C41       1.0  0.5111826516268352  0.7599755442500039  0.2502407641329608  1.0000
  C   C42       1.0  0.9888173471067837  0.24002445547903908  0.7502407638295417  1.0000
  C   C43       1.0  0.48881734694292434  0.25997554438548237  0.24975923596332125  1.0000
  C   C44       1.0  0.011182651462975769  0.7400244553435605  0.7497592360596034  1.0000
  C   C45       1.0  0.3230760055280574  0.8169990038172901  0.24788184403685584  1.0000
  C   C46       1.0  0.17692399463580202  0.18300099656082175  0.7478818441331379  1.0000
  C   C47       1.0  0.6769239947996614  0.3169990039527687  0.2521181560594262  1.0000
  C   C48       1.0  0.8230760056919167  0.6830009964253433  0.7521181561557083  1.0000
  C   C49       1.0  0.1710582119066418  0.8156363691191436  0.20351345754724914  1.0000
  C   C50       1.0  0.3289417882572176  0.18436363060989935  0.7035134576435312  1.0000
  C   C51       1.0  0.828941788421077  0.31563636925462213  0.2964865425490329  1.0000
  C   C52       1.0  0.671058210312542  0.6843636304744208  0.7964865426453149  1.0000
  C   C53       1.0  0.2140973321929194  0.7568720915528084  0.1614332568699383  1.0000
  C   C54       1.0  0.28590266797094  0.24312790882530352  0.6614332569662205  1.0000
  C   C55       1.0  0.7859026681347994  0.25687209103921793  0.3385667432263437  1.0000
  C   C56       1.0  0.7140973323567787  0.7431279086898249  0.8385667433226257  1.0000
  C   C57       1.0  0.4019266145083556  0.699525790255163  0.16446797380364056  1.0000
  C   C58       1.0  0.0980733856555038  0.300474210122949  0.6644679738999227  1.0000
  C   C59       1.0  0.5980733858193632  0.19952579039064147  0.3355320262926415  1.0000
  C   C60       1.0  0.901926614672215  0.8004742099874704  0.8355320259892226  1.0000
  C   C61       1.0  0.9680643829037592  0.44455110121795083  0.1473707186295859  1.0000
  C   C62       1.0  0.531935617587819  0.5554488991601612  0.6473707187258679  1.0000
  C   C63       1.0  0.03193561742395967  0.9445511010824723  0.35262928106699515  1.0000
  C   C64       1.0  0.4680643827398997  0.055448899295639655  0.8526292811632772  1.0000
  C   C65       1.0  0.8074373845238696  0.429131533651346  0.10570138818099355  1.0000
  C   C66       1.0  0.6925626159677086  0.5708684667267659  0.6057013882772756  1.0000
  C   C67       1.0  0.19256261580384917  0.9291315335158674  0.39429861191528853  1.0000
  C   C68       1.0  0.3074373843600102  0.07086846686224449  0.8942986116118695  1.0000
  C   C69       1.0  0.8510575560590874  0.3651079206888822  0.06810606597413904  1.0000
  C   C70       1.0  0.6489424444324908  0.6348920796892297  0.568106066070421  1.0000
  C   C71       1.0  0.14894244426863146  0.8651079205534037  0.43189393412214305  1.0000
  C   C72       1.0  0.3510575558952279  0.13489207982470827  0.9318939338187241  1.0000
  C   C73       1.0  0.056723883982096435  0.314697616858788  0.07101137052101589  1.0000
  C   C74       1.0  0.44327611618176294  0.6853023835193239  0.571011370617298  1.0000
  C   C75       1.0  0.943276114587663  0.8146976167233094  0.4289886291755652  1.0000
  C   C76       1.0  0.5567238841459559  0.18530238365480253  0.9289886292718472  1.0000
  C   C77       1.0  0.21955083303788542  0.33016709263929805  0.11231062142545178  1.0000
  C   C78       1.0  0.280449167125974  0.6698329070897449  0.6123106215217338  1.0000
  C   C79       1.0  0.7804491672898334  0.8301670925038196  0.3876893786708303  1.0000
  C   C80       1.0  0.7195508332017448  0.1698329072252234  0.8876893787671123  1.0000
  C   C81       1.0  0.17421157070247037  0.39425487386169916  0.14989004312744544  1.0000
  C   C82       1.0  0.32578842946138903  0.6057451265164128  0.6498900432237275  1.0000
  C   C83       1.0  0.8257884296252483  0.8942548737262206  0.35010995696883657  1.0000
  C   C84       1.0  0.6742115691083704  0.10574512600282228  0.8501099570651187  1.0000
  C   C85       1.0  0.122840788752907  0.5190751662547803  0.49621720359955984  1.0000
  C   C86       1.0  0.3771592114109524  0.4809248334742626  0.9962172032961408  1.0000
  C   C87       1.0  0.8771592115748118  0.019075166390258885  0.0037827964967222525  1.0000
  C   C88       1.0  0.6228407889167664  0.980924833987853  0.5037827965930043  1.0000
  C   C89       1.0  0.3061415345621578  0.469245132062047  0.5163953583581584  1.0000
  C   C90       1.0  0.19385846560170156  0.530754868316065  0.016395358261876384  1.0000
  C   C91       1.0  0.693858465765561  0.9692451319265685  0.9836046419306878  1.0000
  C   C92       1.0  0.8061415329680579  0.03075486780247444  0.48360464183440566  1.0000
  C   C93       1.0  0.3978198774779057  0.4043099068751093  0.48359988579239216  1.0000
  C   C94       1.0  0.10218012268595367  0.5956900928539336  0.9835998858886742  1.0000
  C   C95       1.0  0.602180122849813  0.9043099073886998  0.016400113904188895  1.0000
  C   C96       1.0  0.8978198776417651  0.0956900929894121  0.5164001140004709  1.0000
  C   C97       1.0  0.3024065725181753  0.39031147070162586  0.43297110229456426  1.0000
  C   C98       1.0  0.19759342764568408  0.6096885296764861  0.9329711019911453  1.0000
  C   C99       1.0  0.6975934278095435  0.8903114705661472  0.06702889780171778  1.0000
  C   C100      1.0  0.8024065726820347  0.1096885291628956  0.5670288978979998  1.0000
  C   C101      1.0  0.11467080484663209  0.4422816002878923  0.4170510040914899  1.0000
  C   C102      1.0  0.3853291953172273  0.5577184000902197  0.9170510041877719  1.0000
  C   C103      1.0  0.8853291954810867  0.9422816001524137  0.08294899600479215  1.0000
  C   C104      1.0  0.6146708050104914  0.057718399576629144  0.5829489961010742  1.0000
  N   N1        1.0  0.05172249862064733  0.5079793296731424  0.23292601006943542  1.0000
  N   N2        1.0  0.4482775015432121  0.49202067070496946  0.7329260101657176  1.0000
  N   N3        1.0  0.9482775017070715  0.007979329808620997  0.2670739896271457  1.0000
  N   N4        1.0  0.5517224987845067  0.992020670569491  0.7670739897234278  1.0000
  N   N5        1.0  0.8891249670945194  0.6444947524977487  0.2567513140022751  1.0000
  N   N6        1.0  0.6108750316390995  0.3555052478803633  0.756751314098557  1.0000
  N   N7        1.0  0.11087503323319937  0.14449475198415815  0.243248685694306  1.0000
  N   N8        1.0  0.38912496693066  0.8555052477448848  0.7432486857905881  1.0000
  N   N9        1.0  0.7683463489589516  0.5749475629548126  0.17631146730738234  1.0000
  N   N10       1.0  0.7316536515326265  0.42505243742329923  0.6763114674036644  1.0000
  N   N11       1.0  0.2316536513687671  0.07494756309029119  0.3236885323891987  1.0000
  N   N12       1.0  0.2683463487950923  0.9250524372878207  0.8236885324854807  1.0000
  N   N13       1.0  0.0276598244814013  0.5058578820321128  0.44782405123009256  1.0000
  N   N14       1.0  0.47234017568245806  0.4941421176969301  0.9478240513263747  1.0000
  N   N15       1.0  0.9723401758463174  0.0058578821675913575  0.05217594886618945  1.0000
  N   N16       1.0  0.5276598228873015  0.9941421175614517  0.5521759489624716  1.0000
  O   O1        1.0  0.6910590931662466  0.6133008836286366  0.43247818944178573  1.0000
  O   O2        1.0  0.8089409073253315  0.3866991167494754  0.9324781891383668  1.0000
  O   O3        1.0  0.30894090716147216  0.11330088376411508  0.06752181065449626  1.0000
  O   O4        1.0  0.19105909300238724  0.8866991166139969  0.5675218107507783  1.0000
  O   O5        1.0  0.08902687446248662  0.2528159458911755  0.033580310230116546  1.0000
  O   O6        1.0  0.4109731257013728  0.7471840538378675  0.5335803103263986  1.0000
  O   O7        1.0  0.9109731258652322  0.7528159457556969  0.4664196898661655  1.0000
  O   O8        1.0  0.5890268728683867  0.24718405397334595  0.9664196899624475  1.0000
  O   O9        1.0  0.9816060504721553  0.868245442233584  0.19915256112604404  1.0000
  O   O10       1.0  0.5183939500194228  0.13175455814452794  0.699152561222326  1.0000
  O   O11       1.0  0.01839394985556343  0.36824544236906254  0.300847438970238  1.0000
  O   O12       1.0  0.48160605030829595  0.6317545580090494  0.8008474390665201  1.0000
  I   I1        1.0  0.6820647212875113  0.32851374447745335  0.5093255484702615  1.0000
  I   I2        1.0  0.8179352774461076  0.6714862552515896  0.009325548373979413  1.0000
  I   I3        1.0  0.31793527728224824  0.8285137443419748  0.9906744514188838  1.0000
  I   I4        1.0  0.1820647211236519  0.1714862553870681  0.4906744517223026  1.0000
