data_image0
_chemical_formula_structural       H80C108N16O12
_chemical_formula_sum              "H80 C108 N16 O12"
_cell_length_a       5.268544358144601
_cell_length_b       15.50272509487492
_cell_length_c       25.290815477080237
_cell_angle_alpha    90.0
_cell_angle_beta     90.15111705016103
_cell_angle_gamma    90.0

_space_group_name_H-M_alt    "P 1"
_space_group_IT_number       1

loop_
  _space_group_symop_operation_xyz
  'x, y, z'

loop_
  _atom_site_type_symbol
  _atom_site_label
  _atom_site_symmetry_multiplicity
  _atom_site_fract_x
  _atom_site_fract_y
  _atom_site_fract_z
  _atom_site_occupancy
  H   H1        1.0  0.8881589739588115  0.25332053532306315  0.5581111659355489  1.0000
  H   H2        1.0  0.6118410261893127  0.7533205354883592  0.9418888338207091  1.0000
  H   H3        1.0  0.11184102487260811  0.7466794643624811  0.44188883403224305  1.0000
  H   H4        1.0  0.3881589745401618  0.2466794648422329  0.05811116614935057  1.0000
  H   H5        1.0  0.5834373370093132  0.9056562310223484  0.9536223919873014  1.0000
  H   H6        1.0  0.9165626631388109  0.4056562308570524  0.5463776077689567  1.0000
  H   H7        1.0  0.4165626618221063  0.0943437693082437  0.04637760798049071  1.0000
  H   H8        1.0  0.08343733759066364  0.5943437694735398  0.45362239220110295  1.0000
  H   H9        1.0  0.8198646653140617  0.6191312379765475  0.7702132060298567  1.0000
  H   H10       1.0  0.6801353348281826  0.11913123845629933  0.7297867941217967  1.0000
  H   H11       1.0  0.1801353335173577  0.38086876170899675  0.22978679393793547  1.0000
  H   H12       1.0  0.31986466590129187  0.8808687618742927  0.27021320584826286  1.0000
  H   H13       1.0  0.7158374469749774  0.3878806811834597  0.6531422639045869  1.0000
  H   H14       1.0  0.784162553167267  0.8878806813487558  0.8468577362470663  1.0000
  H   H15       1.0  0.28416255375449706  0.6121193191471324  0.3468577360654727  1.0000
  H   H16       1.0  0.21583744756220746  0.11211931898183632  0.1531422637229933  1.0000
  H   H17       1.0  0.4263308534011469  0.39455660876178045  0.5748731438059393  1.0000
  H   H18       1.0  0.07366914670016876  0.8945566089270764  0.9251268562842864  1.0000
  H   H19       1.0  0.5736691473283275  0.6054433909237638  0.4251268561641203  1.0000
  H   H20       1.0  0.9263308521312507  0.10544339140351562  0.07487314368350553  1.0000
  H   H21       1.0  0.9745151334122738  0.19026884511905218  0.6414402816641945  1.0000
  H   H22       1.0  0.5254848648319156  0.6902688452843483  0.8585597184851912  1.0000
  H   H23       1.0  0.025484865413265927  0.809731154566492  0.3585597186989928  1.0000
  H   H24       1.0  0.47451513399950396  0.3097311550462439  0.1414402814826009  1.0000
  H   H25       1.0  0.26904167680028745  0.1808215060800326  0.7170149617533281  1.0000
  H   H26       1.0  0.23095832330102814  0.6808215062453287  0.7829850383368977  1.0000
  H   H27       1.0  0.730958322031132  0.8191784936055116  0.28298503821446386  1.0000
  H   H28       1.0  0.7690416774284463  0.31917849344021554  0.217014961633162  1.0000
  H   H29       1.0  0.42466704935217686  0.10139594686611983  0.8189106306380823  1.0000
  H   H30       1.0  0.07533295074913879  0.6013959470314159  0.6810893694521436  1.0000
  H   H31       1.0  0.5753329513772976  0.8986040528194245  0.18108936933197745  1.0000
  H   H32       1.0  0.9246670499803356  0.3986040526541283  0.31891063051791607  1.0000
  H   H33       1.0  0.3709092287652722  0.983983947766899  0.884533737638418  1.0000
  H   H34       1.0  0.1290907713360435  0.48398394760160296  0.6154662624518077  1.0000
  H   H35       1.0  0.6290907719642022  0.016016052563693046  0.11546626233164164  1.0000
  H   H36       1.0  0.870909229393431  0.5160160520839412  0.384533737518252  1.0000
  H   H37       1.0  0.046873838212160804  0.06913925283718951  0.9656193621183793  1.0000
  H   H38       1.0  0.4531261618950345  0.5691392530024856  0.5343806375764512  1.0000
  H   H39       1.0  0.9531261625173136  0.9308607468483547  0.03438063785168034  1.0000
  H   H40       1.0  0.54687383883444  0.4308607473281066  0.4656193623936085  1.0000
  H   H41       1.0  0.10285017345900738  0.18498233777931397  0.8978628381857502  1.0000
  H   H42       1.0  0.3971498266423083  0.68498233794461  0.6021371619044756  1.0000
  H   H43       1.0  0.897149825372412  0.8150176625512782  0.10213716178204184  1.0000
  H   H44       1.0  0.6028501740871661  0.31501766238598206  0.39786283806558403  1.0000
  H   H45       1.0  0.12672487504475133  0.4594390209728134  0.7146820672320444  1.0000
  H   H46       1.0  0.3732751250565643  0.9594390211381094  0.7853179328581815  1.0000
  H   H47       1.0  0.8732751237866682  0.5405609787127308  0.2853179327357477  1.0000
  H   H48       1.0  0.6267248756670305  0.04056097919248263  0.2146820675072735  1.0000
  H   H49       1.0  0.48653196930018644  0.563516517034032  0.7182164773367132  1.0000
  H   H50       1.0  0.0134680308070089  0.06351651751378388  0.7817835223581172  1.0000
  H   H51       1.0  0.513468031429288  0.4364834826515122  0.28178352263334644  1.0000
  H   H52       1.0  0.9865319680244106  0.9364834828168082  0.21821647760967475  1.0000
  H   H53       1.0  0.6972476996527537  0.46457817163906234  0.8710188370466027  1.0000
  H   H54       1.0  0.8027523004894905  0.9645781718043583  0.6289811631050507  1.0000
  H   H55       1.0  0.3027522991786657  0.5354218280464819  0.1289811629211893  1.0000
  H   H56       1.0  0.1972477002399839  0.03542182788118585  0.3710188368650091  1.0000
  H   H57       1.0  0.33726042989636995  0.3584851221955335  0.8662777888779422  1.0000
  H   H58       1.0  0.16273957020494573  0.8584851223608295  0.6337222112122836  1.0000
  H   H59       1.0  0.6627395708331044  0.6415148781350586  0.1337222110921175  1.0000
  H   H60       1.0  0.8372604305245286  0.14151487796976256  0.36627778875777606  1.0000
  H   H61       1.0  0.6796696135446196  0.2425211817271365  0.468626951385523  1.0000
  H   H62       1.0  0.820330385909079  0.7425211818924325  0.031373048857498184  1.0000
  H   H63       1.0  0.32033038528679986  0.7574788179584078  0.531373048582269  1.0000
  H   H64       1.0  0.1796696148203955  0.25747881843815956  0.9686269511125615  1.0000
  H   H65       1.0  0.3195561191440444  0.15633812282469262  0.43393635615991255  1.0000
  H   H66       1.0  0.1804438802687255  0.6563381223449407  0.06606364402168106  1.0000
  H   H67       1.0  0.6804438796873751  0.8436618775058995  0.5660636438078794  1.0000
  H   H68       1.0  0.819556118562694  0.34366187734060344  0.9339363559461108  1.0000
  H   H69       1.0  0.2875882386891664  0.03111279256054508  0.5874481551767347  1.0000
  H   H70       1.0  0.21241176141802895  0.5311127927258412  0.9125518445180957  1.0000
  H   H71       1.0  0.712411760142253  0.9688872071249991  0.4125518447910573  1.0000
  H   H72       1.0  0.7875882393114454  0.468887207604751  0.08744815545196397  1.0000
  H   H73       1.0  0.6425783324474991  0.12286209607301092  0.6150801426645547  1.0000
  H   H74       1.0  0.8574216676947454  0.622862096238307  0.8849198574870987  1.0000
  H   H75       1.0  0.3574216663839205  0.8771379036125333  0.38491985730323725  1.0000
  H   H76       1.0  0.1425783330347291  0.37713790409228515  0.11508014248296104  1.0000
  H   H77       1.0  0.9858287339825533  0.052686495761317634  0.44850765508862883  1.0000
  H   H78       1.0  0.5141712654770251  0.5526864952815658  0.051492344758996944  1.0000
  H   H79       1.0  0.014171266746921185  0.9473135045692745  0.5514923448814307  1.0000
  H   H80       1.0  0.4858287333543944  0.44731350440397843  0.9485076552087951  1.0000
  C   C1        1.0  0.6863554724429405  0.2803301434685644  0.735589757364574  1.0000
  C   C2        1.0  0.8136445276993038  0.7803301429888126  0.7644102427870794  1.0000
  C   C3        1.0  0.31364452828065426  0.7196698568620278  0.26441024300088106  1.0000
  C   C4        1.0  0.1863554730301706  0.2196698566967317  0.2355897571829803  1.0000
  C   C5        1.0  0.8055078352668298  0.2178721475953032  0.8139681439721695  1.0000
  C   C6        1.0  0.6944921648812942  0.7178721477605993  0.6860318557840884  1.0000
  C   C7        1.0  0.1944921654626446  0.782127852090241  0.18603185599789016  1.0000
  C   C8        1.0  0.30550783395012526  0.2821278525699928  0.3139681441837035  1.0000
  C   C9        1.0  0.0004178232335316095  0.34060586107829727  0.7856002314937623  1.0000
  C   C10       1.0  0.49958217686778406  0.8406058605985454  0.7143997685964635  1.0000
  C   C11       1.0  0.9995821755978879  0.6593941392522948  0.21439976847402967  1.0000
  C   C12       1.0  0.5004178238616904  0.1593941390869988  0.2856002313735962  1.0000
  C   C13       1.0  0.5143806325802918  0.28344015668913936  0.6900722481715947  1.0000
  C   C14       1.0  0.9856193675678323  0.7834401562093876  0.8099277515846632  1.0000
  C   C15       1.0  0.4856193681491826  0.7165598436414529  0.309927751798465  1.0000
  C   C16       1.0  0.014380631263587214  0.21655984347615673  0.1900722483831287  1.0000
  C   C17       1.0  0.5538561062738705  0.34458836993542785  0.6498874343831387  1.0000
  C   C18       1.0  0.9461438938742536  0.8445883701007239  0.8501125653731193  1.0000
  C   C19       1.0  0.446143892557549  0.6554116297501165  0.35011256558465326  1.0000
  C   C20       1.0  0.053856106855220874  0.15541163022986823  0.1498874345969404  1.0000
  C   C21       1.0  0.39088183451859376  0.3494389345645368  0.6069751950145151  1.0000
  C   C22       1.0  0.10911816558272187  0.8494389347298328  0.8930248050757106  1.0000
  C   C23       1.0  0.6091181662108806  0.6505610651210074  0.39302480495554454  1.0000
  C   C24       1.0  0.8908818332428179  0.15056106560075927  0.10697519528747663  1.0000
  C   C25       1.0  0.18084627643743895  0.2939927575382689  0.6033580159258504  1.0000
  C   C26       1.0  0.3191537236638767  0.793992757058517  0.8966419841643755  1.0000
  C   C27       1.0  0.8191537242920355  0.7060072427923232  0.39664198404420936  1.0000
  C   C28       1.0  0.6808462751675427  0.20600724262702713  0.10335801580341653  1.0000
  C   C29       1.0  0.13864622659814468  0.23277843913990373  0.6433465699320312  1.0000
  C   C30       1.0  0.36135377350317094  0.7327784386601518  0.8566534301581945  1.0000
  C   C31       1.0  0.8613537741313296  0.7672215611906884  0.3566534300380284  1.0000
  C   C32       1.0  0.6386462253282484  0.26722156102539235  0.14334656980959737  1.0000
  C   C33       1.0  0.3043642472319837  0.2278641076572932  0.6859586599844415  1.0000
  C   C34       1.0  0.19563575286933194  0.7278641078225893  0.8140413401057842  1.0000
  C   C35       1.0  0.6956357534974907  0.772135892028251  0.31404133998561806  1.0000
  C   C36       1.0  0.8043642478601425  0.27213589186295495  0.1859586598642755  1.0000
  C   C37       1.0  0.7683891104028041  0.15076298429446267  0.8538935695383579  1.0000
  C   C38       1.0  0.7316108897394401  0.6507629844597588  0.6461064306132954  1.0000
  C   C39       1.0  0.23161089032667026  0.8492370153910817  0.14610643043170174  1.0000
  C   C40       1.0  0.26838910909197927  0.3492370158708334  0.3538935693544966  1.0000
  C   C41       1.0  0.5623945999285626  0.09335208172390522  0.8506627829597032  1.0000
  C   C42       1.0  0.9376054002136817  0.5933520818892013  0.6493372171919501  1.0000
  C   C43       1.0  0.4376054008009119  0.906647917961639  0.14933721701035643  1.0000
  C   C44       1.0  0.062394600515792605  0.4066479184413908  0.35066278277810964  1.0000
  C   C45       1.0  0.5320145111598118  0.027832239000525293  0.8874367365205915  1.0000
  C   C46       1.0  0.9679854889883122  0.5278322391658213  0.6125632632356663  1.0000
  C   C47       1.0  0.4679854895696626  0.972167760685019  0.11256326344946806  1.0000
  C   C48       1.0  0.0320145098431073  0.4721677611647707  0.3874367367321256  1.0000
  C   C49       1.0  0.7083619592075994  0.01849110838550368  0.9288585800826636  1.0000
  C   C50       1.0  0.7916380409405247  0.5184911085507997  0.5711414196735943  1.0000
  C   C51       1.0  0.29163804152187506  0.9815088913000405  0.07114141988739602  1.0000
  C   C52       1.0  0.20836195789089484  0.4815088911347445  0.42885858029419766  1.0000
  C   C53       1.0  0.9107662081061394  0.07719531970515507  0.9334899986896239  1.0000
  C   C54       1.0  0.5892337920361048  0.5771953198704511  0.5665100014620293  1.0000
  C   C55       1.0  0.08923379262333497  0.9228046806254371  0.06651000128043572  1.0000
  C   C56       1.0  0.41076620678943493  0.42280468046014097  0.4334899989011579  1.0000
  C   C57       1.0  0.9402602262348105  0.14173571398272466  0.8961704482563854  1.0000
  C   C58       1.0  0.5597397739074337  0.6417357141480208  0.603829551895268  1.0000
  C   C59       1.0  0.05973977449466385  0.8582642863478674  0.10382955171367428  1.0000
  C   C60       1.0  0.44026022682204063  0.35826428618257133  0.39617044807479174  1.0000
  C   C61       1.0  0.20608090763574316  0.4036089295080468  0.7904377021506359  1.0000
  C   C62       1.0  0.2939190924655725  0.9036089290282949  0.7095622979395898  1.0000
  C   C63       1.0  0.7939190911956763  0.5963910708225453  0.209562297817156  1.0000
  C   C64       1.0  0.7060809082580222  0.09639107065724926  0.2904377024258652  1.0000
  C   C65       1.0  0.2509990905839777  0.4621181267265322  0.7490748351905393  1.0000
  C   C66       1.0  0.24900090951733792  0.9621181268918282  0.7509251648996865  1.0000
  C   C67       1.0  0.7490009082474418  0.537881872959012  0.25092516477725263  1.0000
  C   C68       1.0  0.7509990912121365  0.03788187343876385  0.24907483507037323  1.0000
  C   C69       1.0  0.4491886175341326  0.5205614032766354  0.7513684182979545  1.0000
  C   C70       1.0  0.05081138256718309  0.02056140311133936  0.7486315817922713  1.0000
  C   C71       1.0  0.5508113812972869  0.4794385970539567  0.24863158166983745  1.0000
  C   C72       1.0  0.9491886181622914  0.9794385965742048  0.2513684181777884  1.0000
  C   C73       1.0  0.60873038100439  0.5223827482225852  0.7959960990334866  1.0000
  C   C74       1.0  0.8912696191378544  0.022382748057289188  0.7040039011181668  1.0000
  C   C75       1.0  0.39126961972508434  0.477617251462959  0.2040039009365731  1.0000
  C   C76       1.0  0.10873038159162018  0.9776172516282551  0.29599609885189293  1.0000
  C   C77       1.0  0.5661787721104171  0.46395751237166805  0.8376545169440701  1.0000
  C   C78       1.0  0.9338212261337723  0.963957512536964  0.6623454832053154  1.0000
  C   C79       1.0  0.4338212267210023  0.536042487958924  0.1623454830237218  1.0000
  C   C80       1.0  0.06617877269176754  0.03604248779362801  0.33765451715787187  1.0000
  C   C81       1.0  0.368239148712104  0.4052000607349144  0.8347089857802819  1.0000
  C   C82       1.0  0.1317608513950913  0.9052000602551625  0.6652910139145485  1.0000
  C   C83       1.0  0.6317608501193154  0.5947999395956777  0.16529101418751008  1.0000
  C   C84       1.0  0.8682391493343832  0.09479993943038163  0.334708986055511  1.0000
  C   C85       1.0  0.5876247058533313  0.19428949178720514  0.49348080974907677  1.0000
  C   C86       1.0  0.912375293606247  0.6942894919525012  0.0065191900985490875  1.0000
  C   C87       1.0  0.4123752948761432  0.8057105078983391  0.5065191902209829  1.0000
  C   C88       1.0  0.08762470522517245  0.30571050773304304  0.9934808098692429  1.0000
  C   C89       1.0  0.38540542651095316  0.1457254189940357  0.47437230802918834  1.0000
  C   C90       1.0  0.11459457290181675  0.6457254191593317  0.02562769215240529  1.0000
  C   C91       1.0  0.6145945742185213  0.8542745806915085  0.5256276919408713  1.0000
  C   C92       1.0  0.8854054259237231  0.3542745811712603  0.974372308210782  1.0000
  C   C93       1.0  0.26909197216216996  0.08406448105248523  0.5073507298218503  1.0000
  C   C94       1.0  0.2309080279391457  0.5840644812177813  0.9926492702683755  1.0000
  C   C95       1.0  0.7309080285673045  0.915935518633059  0.4926492701482095  1.0000
  C   C96       1.0  0.7690919708922739  0.41593551846776294  0.007350729699416388  1.0000
  C   C97       1.0  0.3683852421744468  0.07591213369248583  0.5588658436696134  1.0000
  C   C98       1.0  0.13161475792686883  0.5759121338577818  0.9411341564206124  1.0000
  C   C99       1.0  0.6316147585550277  0.9240878659930584  0.4411341563004463  1.0000
  C   C100      1.0  0.8683852409045507  0.4240878664728102  0.05886584354717959  1.0000
  C   C101      1.0  0.5698648911366092  0.12762135546440603  0.5747799942048819  1.0000
  C   C102      1.0  0.9301351090056352  0.6276213556297021  0.9252200059467712  1.0000
  C   C103      1.0  0.4301351095928653  0.8723786442211382  0.42522000576517777  1.0000
  C   C104      1.0  0.0698648898257843  0.37237864470089005  0.07477999402102059  1.0000
  C   C105      1.0  0.05632584550555731  0.033290729006774274  0.48737105925601565  1.0000
  C   C106      1.0  0.44367415390721254  0.5332907291720703  0.012628940925578019  1.0000
  C   C107      1.0  0.9436741552239171  0.9667092713238178  0.512628940714044  1.0000
  C   C108      1.0  0.5563258449242069  0.4667092711585218  0.9873710590422139  1.0000
  N   N1        1.0  0.6733209640193208  0.2109132678280509  0.7681476125741094  1.0000
  N   N2        1.0  0.8266790361229235  0.7109132673482991  0.731852387577544  1.0000
  N   N3        1.0  0.32667903670427384  0.7890867325025412  0.23185238779134568  1.0000
  N   N4        1.0  0.173320964606551  0.2890867323372452  0.2681476123925157  1.0000
  N   N5        1.0  0.970434373596431  0.2817857469100174  0.8244466282297679  1.0000
  N   N6        1.0  0.529565626551693  0.7817857464302655  0.6755533715264902  1.0000
  N   N7        1.0  0.029565627133043414  0.7182142534205748  0.17555337174029192  1.0000
  N   N8        1.0  0.47043437417778144  0.21821425325527866  0.3244466284435694  1.0000
  N   N9        1.0  0.8507711063454763  0.3451932945498171  0.7424447195839566  1.0000
  N   N10       1.0  0.6492288937967681  0.8451932940700653  0.7575552805676965  1.0000
  N   N11       1.0  0.14922889437811857  0.6548067057807749  0.25755528078149825  1.0000
  N   N12       1.0  0.3507711050346513  0.15480670561547896  0.2424447194000954  1.0000
  N   N13       1.0  0.6793595329757212  0.18618388330669727  0.5428802154810748  1.0000
  N   N14       1.0  0.8206404671724028  0.6861838834719933  0.9571197842751832  1.0000
  N   N15       1.0  0.3206404658556983  0.8138161163788469  0.45711978448671714  1.0000
  N   N16       1.0  0.1793595335570716  0.3138161162135509  0.042880215694876544  1.0000
  O   O1        1.0  0.025809435679290556  0.3026287547052612  0.5608624060227799  1.0000
  O   O2        1.0  0.474190564422025  0.8026287548705573  0.9391375940674459  1.0000
  O   O3        1.0  0.974190565050184  0.697371244980283  0.4391375939472797  1.0000
  O   O4        1.0  0.5258094344093943  0.19737124546003484  0.06086240590034609  1.0000
  O   O5        1.0  0.6958244211178556  0.9541407023265893  0.9648651028558353  1.0000
  O   O6        1.0  0.8041755790243887  0.4541407021612933  0.5351348972958181  1.0000
  O   O7        1.0  0.3041755796116188  0.0458592980040027  0.03513489711422441  1.0000
  O   O8        1.0  0.19582442169920602  0.5458592981692987  0.4648651030696369  1.0000
  O   O9        1.0  0.8057645031962172  0.5772550151817165  0.8009260142162694  1.0000
  O   O10       1.0  0.6942354969460272  0.07725501566146832  0.6990739859353838  1.0000
  O   O11       1.0  0.1942354975332573  0.42274498450382775  0.19907398575379015  1.0000
  O   O12       1.0  0.3057645018853923  0.9227449846691238  0.30092601403240815  1.0000
