data_image0
_chemical_formula_structural       H76C104N16O12Br4
_chemical_formula_sum              "H76 C104 N16 O12 Br4"
_cell_length_a       5.490082032413521
_cell_length_b       15.533957957646374
_cell_length_c       25.0996813537806
_cell_angle_alpha    90.0
_cell_angle_beta     90.0
_cell_angle_gamma    90.0

_space_group_name_H-M_alt    "P 1"
_space_group_IT_number       1

loop_
  _space_group_symop_operation_xyz
  'x, y, z'

loop_
  _atom_site_type_symbol
  _atom_site_label
  _atom_site_symmetry_multiplicity
  _atom_site_fract_x
  _atom_site_fract_y
  _atom_site_fract_z
  _atom_site_occupancy
  H   H1        1.0  0.15646026688282105  0.4407369943105814  0.5612908993315958  1.0000
  H   H2        1.0  0.3435397338081048  0.5592630058409336  0.06129089920770184  1.0000
  H   H3        1.0  0.8435397344990307  0.9407369943863388  0.9387091006416747  1.0000
  H   H4        1.0  0.6564602657522804  0.05926300576517609  0.4387091005177807  1.0000
  H   H5        1.0  0.8130307604962569  0.7931128244064524  0.9546865624407902  1.0000
  H   H6        1.0  0.686969237933588  0.20688717574506268  0.4546865623168962  1.0000
  H   H7        1.0  0.18696923906412852  0.2931128243306948  0.5453134375324804  1.0000
  H   H8        1.0  0.3130307616267974  0.7068871751770692  0.045313437408586385  1.0000
  H   H9        1.0  0.046397202900813374  0.08849769220106031  0.7723576445754371  1.0000
  H   H10       1.0  0.4536027959686461  0.9115023079504547  0.272357644451543  1.0000
  H   H11       1.0  0.9536027966595719  0.5884976922768178  0.7276423553978335  1.0000
  H   H12       1.0  0.5463972035917393  0.4115023078746972  0.22764235527393958  1.0000
  H   H13       1.0  0.5455441325497495  0.5212970823069576  0.7174033078825435  1.0000
  H   H14       1.0  0.9544558677015617  0.47870291720080643  0.2174033081570609  1.0000
  H   H15       1.0  0.4544558688321022  0.02129708287495104  0.7825966920907271  1.0000
  H   H16       1.0  0.04554413185882367  0.978702917276564  0.28259669196683307  1.0000
  H   H17       1.0  0.25104063689083134  0.5068818199114664  0.6438442182679694  1.0000
  H   H18       1.0  0.24895936380009454  0.4931181802400485  0.14384421854248688  1.0000
  H   H19       1.0  0.7489593644910204  0.006881819835708969  0.8561557817053012  1.0000
  H   H20       1.0  0.7510406357602908  0.993118180315806  0.3561557815814071  1.0000
  H   H21       1.0  0.6821511132054277  0.30284012888578543  0.5757770258634466  1.0000
  H   H22       1.0  0.8178488870458835  0.6971598712657295  0.07577702573955256  1.0000
  H   H23       1.0  0.31784888817642404  0.802840128961543  0.9242229741098241  1.0000
  H   H24       1.0  0.18215111251450183  0.19715987118997205  0.42422297398593006  1.0000
  H   H25       1.0  0.9712841772704416  0.3135333527539649  0.6526609190412112  1.0000
  H   H26       1.0  0.5287158229808696  0.6864666473975501  0.15266091891731726  1.0000
  H   H27       1.0  0.028715822289943776  0.8135333521859714  0.8473390809320595  1.0000
  H   H28       1.0  0.47128417657951566  0.1864666473217926  0.34733908120657675  1.0000
  H   H29       1.0  0.6874416571041372  0.5987855577671023  0.8185954204117901  1.0000
  H   H30       1.0  0.8125583431471741  0.40121444238441273  0.3185954202878961  1.0000
  H   H31       1.0  0.31255834427771456  0.09878555769134477  0.6814045795614805  1.0000
  H   H32       1.0  0.1874416564132113  0.9012144418164193  0.18140457983599786  1.0000
  H   H33       1.0  0.6182714137893837  0.712470216552388  0.8864618289924483  1.0000
  H   H34       1.0  0.8817285864619275  0.2875297835991271  0.38646182926696565  1.0000
  H   H35       1.0  0.3817285857710017  0.2124702164766304  0.6135381709808223  1.0000
  H   H36       1.0  0.11827141491992416  0.7875297836748846  0.11353817085692833  1.0000
  H   H37       1.0  0.29445146547096956  0.6452804827546185  0.9624228032823797  1.0000
  H   H38       1.0  0.20554853521995634  0.35471951739689644  0.4624228031584857  1.0000
  H   H39       1.0  0.7055485359108822  0.14528048267886107  0.5375771966908909  1.0000
  H   H40       1.0  0.794451464340429  0.854719517472654  0.03757719656699688  1.0000
  H   H41       1.0  0.36103749603330215  0.5293276106719835  0.8941647076575145  1.0000
  H   H42       1.0  0.13896250283615727  0.4706723888357805  0.39416470753362054  1.0000
  H   H43       1.0  0.6389625035270832  0.02932761059622607  0.605835292315756  1.0000
  H   H44       1.0  0.861037496724228  0.970672388911538  0.10583529259027342  1.0000
  H   H45       1.0  0.5677793394700248  0.34679746363986114  0.8680577053109968  1.0000
  H   H46       1.0  0.93222065895982  0.6532025365116538  0.36805770518710273  1.0000
  H   H47       1.0  0.43222066009036053  0.8467974630718678  0.6319422946622739  1.0000
  H   H48       1.0  0.06777934060056534  0.15320253643589632  0.13194229453837983  1.0000
  H   H49       1.0  0.9132678984389982  0.24263389795932405  0.8743762377164335  1.0000
  H   H50       1.0  0.5867321018123131  0.75736610154844  0.374376237990951  1.0000
  H   H51       1.0  0.08673210294285354  0.7426338980350815  0.625623762256837  1.0000
  H   H52       1.0  0.4132678977480723  0.2573661021164334  0.12562376213294305  1.0000
  H   H53       1.0  0.7278607708240915  0.14272046480650516  0.7192261071187221  1.0000
  H   H54       1.0  0.7721392294272197  0.857279534701259  0.2192261069948282  1.0000
  H   H55       1.0  0.27213923055776024  0.6427204648822626  0.7807738928545485  1.0000
  H   H56       1.0  0.22786077013316564  0.35727953462550144  0.2807738931290658  1.0000
  H   H57       1.0  0.3796065774055131  0.24508097037342758  0.7144412479682329  1.0000
  H   H58       1.0  0.12039342328541273  0.7549190297780873  0.21444124824275043  1.0000
  H   H59       1.0  0.6203934221548721  0.7450809704491851  0.7855587520050377  1.0000
  H   H60       1.0  0.8796065762749725  0.25491902970232994  0.2855587518811436  1.0000
  H   H61       1.0  0.9413614385881963  0.5703381497591206  0.619312638311985  1.0000
  H   H62       1.0  0.558638561663115  0.4296618497486434  0.11931263818809104  1.0000
  H   H63       1.0  0.058638560972189085  0.07033815032711403  0.8806873616612855  1.0000
  H   H64       1.0  0.4413614378972704  0.929661849824401  0.38068736193580294  1.0000
  H   H65       1.0  0.59664611761001  0.6641948238904123  0.5942953956167737  1.0000
  H   H66       1.0  0.9033538826413012  0.3358051762611028  0.0942953954928797  1.0000
  H   H67       1.0  0.40335388195037536  0.16419482381465475  0.9057046043564968  1.0000
  H   H68       1.0  0.09664611691908412  0.8358051763368602  0.4057046046310143  1.0000
  H   H69       1.0  0.590085428755573  0.5379684709321936  0.44017520558426826  1.0000
  H   H70       1.0  0.9099145714957382  0.4620315292193214  0.9401752053097507  1.0000
  H   H71       1.0  0.4099145726262788  0.03796847085643611  0.059824794539625754  1.0000
  H   H72       1.0  0.09008542806464714  0.9620315292950788  0.5598247946635198  1.0000
  H   H73       1.0  0.9306194679488116  0.44608071612483674  0.4728293643541583  1.0000
  H   H74       1.0  0.5693805323024997  0.5539192840266782  0.9728293644780523  1.0000
  H   H75       1.0  0.06938053161157387  0.9460807162005942  0.02717063576973573  1.0000
  H   H76       1.0  0.4306194672578856  0.05391928395092077  0.5271706354952184  1.0000
  C   C1        1.0  0.06946174715578023  0.489386358629738  0.8118995505467057  1.0000
  C   C2        1.0  0.43053825353514563  0.510613641521777  0.31189955042281176  1.0000
  C   C3        1.0  0.9305382524046052  0.9893863587054955  0.6881004494265649  1.0000
  C   C4        1.0  0.5694617460252397  0.010613641446019503  0.18810044930267084  1.0000
  C   C5        1.0  0.9501989313093516  0.4236583334359129  0.734584077786423  1.0000
  C   C6        1.0  0.5498010689419596  0.576341666715602  0.23458407766252903  1.0000
  C   C7        1.0  0.04980106825103379  0.9236583335116704  0.765415922585259  1.0000
  C   C8        1.0  0.4501989306184257  0.07634166663984455  0.265415922461365  1.0000
  C   C9        1.0  0.252901099073308  0.3650153544550413  0.7852839505084456  1.0000
  C   C10       1.0  0.24709890161761786  0.6349846456964737  0.2852839503845516  1.0000
  C   C11       1.0  0.7470989023085437  0.8650153545307988  0.714716049464825  1.0000
  C   C12       1.0  0.7529010979427676  0.13498464562071621  0.21471604973934239  1.0000
  C   C13       1.0  0.7802754284377768  0.41856187635679293  0.689697201968364  1.0000
  C   C14       1.0  0.7197245718135344  0.5814381231509712  0.1896972022428815  1.0000
  C   C15       1.0  0.219724572944075  0.9185618764325504  0.8103027980049066  1.0000
  C   C16       1.0  0.28027542774685094  0.08143812307521367  0.3103027978810125  1.0000
  C   C17       1.0  0.57632410796766  0.4731812297960984  0.6865200923120303  1.0000
  C   C18       1.0  0.9236758922836512  0.5268187703554166  0.18652009218813614  1.0000
  C   C19       1.0  0.42367589341419176  0.973181229871856  0.8134799076612403  1.0000
  C   C20       1.0  0.07632410727673411  0.026818770279659065  0.31347990793575786  1.0000
  C   C21       1.0  0.4106460826431217  0.4654157195295651  0.645076792879732  1.0000
  C   C22       1.0  0.08935391622633779  0.5345842806219498  0.14507679275583804  1.0000
  C   C23       1.0  0.5893539169172637  0.9654157196053227  0.8549232070935386  1.0000
  C   C24       1.0  0.9106460833340475  0.0345842805461924  0.354923207368056  1.0000
  C   C25       1.0  0.4472863256872804  0.40296413618905064  0.6053275197340902  1.0000
  C   C26       1.0  0.05271367500364552  0.5970358639624643  0.10532751961019612  1.0000
  C   C27       1.0  0.552713673873105  0.9029641362648081  0.8946724802391804  1.0000
  C   C28       1.0  0.9472863245567398  0.09703586388670683  0.39467248011528644  1.0000
  C   C29       1.0  0.6514088949646917  0.34859020635719884  0.6079675110178846  1.0000
  C   C30       1.0  0.8485911052866196  0.6514097937943162  0.1079675108939906  1.0000
  C   C31       1.0  0.34859110459569365  0.8485902064329564  0.8920324889553859  1.0000
  C   C32       1.0  0.15140889609523223  0.15140979371855867  0.3920324892299034  1.0000
  C   C33       1.0  0.8138975052865725  0.35592589313520434  0.649908345850094  1.0000
  C   C34       1.0  0.6861024949647387  0.6440741070163106  0.1499083457262001  1.0000
  C   C35       1.0  0.18610249427381284  0.8559258932109619  0.8500916541231766  1.0000
  C   C36       1.0  0.31389750459564664  0.14407410694055314  0.3500916539992825  1.0000
  C   C37       1.0  0.030436541569587583  0.557162955094759  0.8517128659396314  1.0000
  C   C38       1.0  0.4695634591213383  0.44283704505675603  0.35171286581573735  1.0000
  C   C39       1.0  0.9695634579907978  0.057162955019001496  0.6482871340336392  1.0000
  C   C40       1.0  0.5304365422605135  0.9428370451325135  0.14828713430815668  1.0000
  C   C41       1.0  0.8214326495259043  0.609473577552702  0.8499209611195637  1.0000
  C   C42       1.0  0.6785673507254069  0.39052642259881293  0.3499209609956697  1.0000
  C   C43       1.0  0.17856735003448101  0.10947357747694458  0.6500790388537069  1.0000
  C   C44       1.0  0.32143264883497846  0.8905264226745704  0.15007903872981285  1.0000
  C   C45       1.0  0.7823633790243658  0.672999484001693  0.8878759389765439  1.0000
  C   C46       1.0  0.7176366212269454  0.3270005155060712  0.38787593885264987  1.0000
  C   C47       1.0  0.21763662053601948  0.17299948456968633  0.6121240609967267  1.0000
  C   C48       1.0  0.28236338015490636  0.8270005155818286  0.11212406127124414  1.0000
  C   C49       1.0  0.9543609510870333  0.6859804789644572  0.9286613416105819  1.0000
  C   C50       1.0  0.545639049164278  0.3140195211870578  0.42866134188509936  1.0000
  C   C51       1.0  0.04563905029481849  0.18598047888869973  0.5713386583626886  1.0000
  C   C52       1.0  0.45436095039610735  0.8140195212628153  0.07133865823879462  1.0000
  C   C53       1.0  0.16285035537200476  0.6334925726483044  0.9308889491730812  1.0000
  C   C54       1.0  0.3371496453189211  0.3665074268594597  0.43088894944759853  1.0000
  C   C55       1.0  0.8371496441883806  0.13349257257254685  0.5691110508001894  1.0000
  C   C56       1.0  0.6628503560629306  0.8665074269352172  0.06911105067629549  1.0000
  C   C57       1.0  0.1995953855571576  0.5700257773416576  0.8930132591752554  1.0000
  C   C58       1.0  0.30040461513376826  0.4299742228098575  0.3930132590513614  1.0000
  C   C59       1.0  0.8004046140032278  0.07002577726590001  0.6069867407980152  1.0000
  C   C60       1.0  0.6995953862480835  0.929974222885615  0.10698674067412117  1.0000
  C   C61       1.0  0.4496693210455935  0.30207876465187633  0.7908567551201238  1.0000
  C   C62       1.0  0.05033067782386594  0.6979212354996387  0.2908567549962297  1.0000
  C   C63       1.0  0.5503306785147918  0.8020787647276338  0.7091432448531468  1.0000
  C   C64       1.0  0.9496693217365194  0.19792123542388118  0.2091432447292528  1.0000
  C   C65       1.0  0.602006591247061  0.3009431570978906  0.8360234189522622  1.0000
  C   C66       1.0  0.8979934071827839  0.6990568430536245  0.3360234188283681  1.0000
  C   C67       1.0  0.39799340831332436  0.8009431571736481  0.6639765810210084  1.0000
  C   C68       1.0  0.1020065923776015  0.19905684297786688  0.16397658089711448  1.0000
  C   C69       1.0  0.7935080613148602  0.24289820664428344  0.8397125108054562  1.0000
  C   C70       1.0  0.7064919389364511  0.7571017935072316  0.3397125106815622  1.0000
  C   C71       1.0  0.20649193824552517  0.742898206720041  0.6602874891678144  1.0000
  C   C72       1.0  0.2935080606239343  0.25710179343147405  0.1602874894423318  1.0000
  C   C73       1.0  0.8395250877469657  0.18492439839429328  0.7976882167463955  1.0000
  C   C74       1.0  0.6604749125043456  0.8150756017572218  0.2976882170209129  1.0000
  C   C75       1.0  0.16047491181341975  0.6849243984700508  0.7023117832268752  1.0000
  C   C76       1.0  0.33952508705603973  0.3150756016814642  0.20231178310298112  1.0000
  C   C77       1.0  0.6882778923321164  0.18567640377707142  0.752443811688283  1.0000
  C   C78       1.0  0.8117221060977284  0.8143235963744435  0.25244381156438905  1.0000
  C   C79       1.0  0.31172210722826893  0.6856764038528289  0.7475561886833989  1.0000
  C   C80       1.0  0.18827789346265694  0.31432359629868606  0.24755618855950495  1.0000
  C   C81       1.0  0.4961535608972537  0.24324867752973608  0.7494865462571496  1.0000
  C   C82       1.0  0.0038464397936721793  0.7567513226217789  0.24948654613325563  1.0000
  C   C83       1.0  0.5038464386631316  0.7432486776054936  0.750513453716121  1.0000
  C   C84       1.0  0.9961535615881797  0.25675132254602145  0.25051345359222693  1.0000
  C   C85       1.0  0.8617564149437915  0.5645212896745004  0.5797140236526681  1.0000
  C   C86       1.0  0.6382435853075197  0.4354787104770145  0.07971402392718557  1.0000
  C   C87       1.0  0.13824358461659383  0.064521289598743  0.9202859763206025  1.0000
  C   C88       1.0  0.36175641607433207  0.935478710552772  0.42028597619670843  1.0000
  C   C89       1.0  0.6678362852054076  0.6177731307220563  0.5657345445885983  1.0000
  C   C90       1.0  0.8321637150459036  0.3822268694294586  0.0657345444647043  1.0000
  C   C91       1.0  0.3321637143549777  0.11777313064629885  0.9342654553846723  1.0000
  C   C92       1.0  0.16783628451448176  0.8822268688614653  0.43426545526077825  1.0000
  C   C93       1.0  0.5689180182662781  0.6081051523221228  0.5149845003133098  1.0000
  C   C94       1.0  0.9310819819850332  0.3918948478293921  0.014984500587827168  1.0000
  C   C95       1.0  0.4310819831155737  0.10810515224636537  0.9850154996599608  1.0000
  C   C96       1.0  0.06891801757535214  0.8918948479051496  0.4850154995360668  1.0000
  C   C97       1.0  0.6637896680749468  0.5470725602045857  0.4799807977715775  1.0000
  C   C98       1.0  0.8362103321763645  0.4529274399469292  0.9799807978954715  1.0000
  C   C99       1.0  0.33621033148543855  0.04707256012882832  0.0200192019539051  1.0000
  C   C100      1.0  0.16378966920548732  0.9529274393789358  0.5200192020777992  1.0000
  C   C101      1.0  0.8546531367468979  0.49616169819786093  0.49822681546179887  1.0000
  C   C102      1.0  0.6453468635044133  0.5038383019536541  0.9982268155856929  1.0000
  C   C103      1.0  0.14534686281348738  0.9961616982736184  0.0017731846620951744  1.0000
  C   C104      1.0  0.35465313605597204  0.0038383018778965416  0.5017731843875778  1.0000
  N   N1        1.0  0.22811610147279293  0.42630172156094565  0.8231646891759422  1.0000
  N   N2        1.0  0.27188389921813294  0.5736982779468185  0.3231646890520482  1.0000
  N   N3        1.0  0.7718838999090587  0.9263017216367032  0.6768353107973284  1.0000
  N   N4        1.0  0.7281161003422525  0.07369827851481184  0.1768353110718458  1.0000
  N   N5        1.0  0.10492649592464427  0.3583162910042627  0.7426002899113507  1.0000
  N   N6        1.0  0.3950735047662816  0.6416837085035013  0.24260028978745682  1.0000
  N   N7        1.0  0.8950735054572075  0.8583162910800202  0.7573997100619199  1.0000
  N   N8        1.0  0.6049264947941037  0.14168370842774383  0.2573997103364372  1.0000
  N   N9        1.0  0.9418688663431101  0.4949555896161921  0.7658796623370087  1.0000
  N   N10       1.0  0.5581311339082011  0.5050444105353228  0.2658796626115262  1.0000
  N   N11       1.0  0.058131133217275324  0.9949555896919496  0.7341203376362618  1.0000
  N   N12       1.0  0.44186886747365056  0.005044410459565365  0.23412033751236785  1.0000
  N   N13       1.0  0.9529017506684053  0.5044582025627747  0.5469374131290415  1.0000
  N   N14       1.0  0.5470982477614396  0.4955417975887403  0.04693741300514751  1.0000
  N   N15       1.0  0.0470982488919801  0.0044582024870172205  0.9530625868442292  1.0000
  N   N16       1.0  0.45290175179894576  0.9955417976644977  0.4530625871187465  1.0000
  O   O1        1.0  0.2926256166146468  0.3924990924157102  0.563894499316747  1.0000
  O   O2        1.0  0.20737438225481264  0.6075009077358048  0.06389449959126435  1.0000
  O   O3        1.0  0.7073743829457385  0.8924990924914676  0.9361055006565236  1.0000
  O   O4        1.0  0.7926256173055727  0.10750090766004732  0.43610550053262964  1.0000
  O   O5        1.0  0.9297662165816474  0.7474552552322751  0.9662433151306529  1.0000
  O   O6        1.0  0.5702337818481974  0.2525447449192399  0.46624331500675886  1.0000
  O   O7        1.0  0.07023378297873799  0.2474552551565176  0.5337566848426177  1.0000
  O   O8        1.0  0.42976621771218787  0.7525447449949973  0.03375668511713514  1.0000
  O   O9        1.0  0.0313259089726924  0.1310966950955076  0.8027658497331905  1.0000
  O   O10       1.0  0.46867408989676707  0.8689033044122565  0.3027658496092965  1.0000
  O   O11       1.0  0.9686740905876929  0.6310966951712651  0.6972341502400801  1.0000
  O   O12       1.0  0.5313259096636183  0.368903304336499  0.19723415051459753  1.0000
  Br  Br1       1.0  0.30218807482384064  0.6774267143435999  0.49367298195335935  1.0000
  Br  Br2       1.0  0.19781192586708524  0.32257328580791506  0.9936729820772533  1.0000
  Br  Br3       1.0  0.6978119247365447  0.17742671426784243  0.0063270181705346665  1.0000
  Br  Br4       1.0  0.8021880736933001  0.8225732858836726  0.5063270178960172  1.0000
