data_image0
_chemical_formula_structural       H76C104N16O12
_chemical_formula_sum              "H76 C104 N16 O12"
_cell_length_a       5.525737638522349
_cell_length_b       15.071861419519854
_cell_length_c       24.214294162126734
_cell_angle_alpha    90.0
_cell_angle_beta     92.19399546863755
_cell_angle_gamma    90.0

_space_group_name_H-M_alt    "P 1"
_space_group_IT_number       1

loop_
  _space_group_symop_operation_xyz
  'x, y, z'

loop_
  _atom_site_type_symbol
  _atom_site_label
  _atom_site_symmetry_multiplicity
  _atom_site_fract_x
  _atom_site_fract_y
  _atom_site_fract_z
  _atom_site_occupancy
  H   H1        1.0  0.9124750814167657  0.296073966299921  0.5493940276722354  1.0000
  H   H2        1.0  0.5875249199704824  0.7960739663158496  0.9506059722257428  1.0000
  H   H3        1.0  0.08752491890550002  0.7039260337319363  0.45060597211657266  1.0000
  H   H4        1.0  0.4124750803484448  0.20392603371600762  0.04939402797601459  1.0000
  H   H5        1.0  0.6055851570417046  0.9555825096259954  0.9629537372007694  1.0000
  H   H6        1.0  0.894414842534506  0.455582510273555  0.5370462626806258  1.0000
  H   H7        1.0  0.39441484327722265  0.04441748974237364  0.037046263000988046  1.0000
  H   H8        1.0  0.10558515597672212  0.5444174897583023  0.46295373709159915  1.0000
  H   H9        1.0  0.816106474203025  0.6684532898472574  0.7712827947743237  1.0000
  H   H10       1.0  0.6838935253731856  0.1684532898313288  0.7287172051070715  1.0000
  H   H11       1.0  0.1838935261192409  0.33154671018459986  0.22871720501448436  1.0000
  H   H12       1.0  0.3161064749457415  0.8315467102005284  0.27128279509468584  1.0000
  H   H13       1.0  0.2911913066721705  0.231337271021105  0.7173333787934296  1.0000
  H   H14       1.0  0.20880869293726445  0.7313372710370336  0.7826666210242991  1.0000
  H   H15       1.0  0.7088086936467567  0.7686627290107522  0.28266662140832777  1.0000
  H   H16       1.0  0.7911913073850013  0.2686627289948237  0.21733337876450903  1.0000
  H   H17       1.0  0.9890941386495009  0.24027157490380943  0.6399561448980452  1.0000
  H   H18       1.0  0.5109058609267096  0.740271574919738  0.8600438549833501  1.0000
  H   H19       1.0  0.010905861672764854  0.7597284251280478  0.36004385489076296  1.0000
  H   H20       1.0  0.4890941393922176  0.25972842511211913  0.1399561452184072  1.0000
  H   H21       1.0  0.404244025547949  0.4478259673525463  0.5657832088847102  1.0000
  H   H22       1.0  0.09575597405814733  0.947825967368475  0.9342167913459677  1.0000
  H   H23       1.0  0.5957559729599404  0.5521740326793109  0.43421679130046414  1.0000
  H   H24       1.0  0.9042440262607798  0.05217403266338228  0.06578320885578966  1.0000
  H   H25       1.0  0.7048742787110929  0.44104370886736605  0.6457901929340972  1.0000
  H   H26       1.0  0.7951257226761554  0.9410437088832947  0.8542098069638812  1.0000
  H   H27       1.0  0.295125721611173  0.5589562911644912  0.3542098068547108  1.0000
  H   H28       1.0  0.20487427764611035  0.05895629114856257  0.14579019282492706  1.0000
  H   H29       1.0  0.10672379574748257  0.23981384710178325  0.9065162096989001  1.0000
  H   H30       1.0  0.3932762038586138  0.7398138471177119  0.5934837905317779  1.0000
  H   H31       1.0  0.893276202760407  0.760186152930074  0.09348379048627435  1.0000
  H   H32       1.0  0.6067237964603134  0.2601861529141453  0.4065162096699794  1.0000
  H   H33       1.0  0.059949246723127014  0.1197641359455589  0.9767912565989778  1.0000
  H   H34       1.0  0.4400507528829693  0.6197641359614875  0.5232087436317002  1.0000
  H   H35       1.0  0.9400507517847625  0.8802358640862983  0.0232087435861966  1.0000
  H   H36       1.0  0.5599492474359579  0.38023586407036974  0.4767912565700573  1.0000
  H   H37       1.0  0.3938024712920909  0.03808407694464364  0.8935940706037007  1.0000
  H   H38       1.0  0.1061975283140055  0.5380840769605723  0.6064059296269774  1.0000
  H   H39       1.0  0.6061975272157986  0.9619159230872136  0.10640592958147377  1.0000
  H   H40       1.0  0.8938024720049218  0.46191592307128493  0.3935940705747801  1.0000
  H   H41       1.0  0.44086974815755914  0.15797717174577447  0.824228894180251  1.0000
  H   H42       1.0  0.059130251451875816  0.6579771717617031  0.6757711056374776  1.0000
  H   H43       1.0  0.5591302521647067  0.8420228282860828  0.17577110560855702  1.0000
  H   H44       1.0  0.9408697488703901  0.3420228282701541  0.3242288941513305  1.0000
  H   H45       1.0  0.3562667016182512  0.39845504764409634  0.8647625220539112  1.0000
  H   H46       1.0  0.14373329798784512  0.898455047660025  0.6352374781767667  1.0000
  H   H47       1.0  0.6437332987006759  0.601544952387761  0.13523747814784612  1.0000
  H   H48       1.0  0.8562667005200443  0.1015449523718323  0.36476252200840775  1.0000
  H   H49       1.0  0.7073877596473674  0.5042245631423874  0.8730502607094114  1.0000
  H   H50       1.0  0.7926122399288432  0.004224563126458763  0.6269497391719839  1.0000
  H   H51       1.0  0.29261224067489844  0.4957754368894699  0.12694973907939675  1.0000
  H   H52       1.0  0.2073877585790463  0.9957754369053985  0.3730502610131905  1.0000
  H   H53       1.0  0.4785987047310282  0.6216181392078158  0.7174316407958236  1.0000
  H   H54       1.0  0.02140129487840681  0.12161813919188719  0.7825683590219052  1.0000
  H   H55       1.0  0.5214012955878989  0.3783818608240414  0.28256835940593394  1.0000
  H   H56       1.0  0.9785987036328212  0.8783818608399699  0.21743164075031987  1.0000
  H   H57       1.0  0.12457967019414995  0.5190998286294782  0.7117663277617337  1.0000
  H   H58       1.0  0.3754203312263226  0.019099828613549627  0.788233672072578  1.0000
  H   H59       1.0  0.8754203301281159  0.48090017140237895  0.28823367202707434  1.0000
  H   H60       1.0  0.6245796690959431  0.9809001714183077  0.21176632771623016  1.0000
  H   H61       1.0  0.011622638324385932  0.1833556707482013  0.4707919821462737  1.0000
  H   H62       1.0  0.4883773627405965  0.68335567076413  0.029208017962896498  1.0000
  H   H63       1.0  0.9883773619945413  0.8166443292836559  0.5292080180554837  1.0000
  H   H64       1.0  0.5116226375816694  0.3166443292677273  0.9707919818259116  1.0000
  H   H65       1.0  0.8277595163774824  0.03852077217536516  0.44428909071854605  1.0000
  H   H66       1.0  0.672240482843238  0.5385207721912938  0.05571090943770784  1.0000
  H   H67       1.0  0.17224048394144487  0.9614792278564921  0.5557109094832114  1.0000
  H   H68       1.0  0.32775951566465145  0.46147922784056344  0.9442890907474666  1.0000
  H   H69       1.0  0.3335512171991696  0.07495397605878391  0.5771648771065094  1.0000
  H   H70       1.0  0.1664487824102654  0.5749539760747125  0.9228351227112191  1.0000
  H   H71       1.0  0.6664487831230963  0.9250460239730733  0.4228351226822986  1.0000
  H   H72       1.0  0.8335512161009628  0.4250460239571447  0.07716487706100593  1.0000
  H   H73       1.0  0.5408258839475941  0.21574524668788983  0.5984072851598858  1.0000
  H   H74       1.0  0.9591741156252779  0.7157452467038184  0.9015927151344588  1.0000
  H   H75       1.0  0.45917411637133304  0.7842547533439673  0.4015927150418715  1.0000
  H   H76       1.0  0.04082588469364937  0.2842547533280388  0.09840728506729869  1.0000
  C   C1        1.0  0.8160106487368791  0.2711837792448471  0.8167353046127809  1.0000
  C   C2        1.0  0.6839893526503691  0.7711837792607757  0.6832646952851975  1.0000
  C   C3        1.0  0.18398935158538665  0.72881622078701  0.18326469517602725  1.0000
  C   C4        1.0  0.31601064767189674  0.22881622077108146  0.3167353045036106  1.0000
  C   C5        1.0  0.010674559511634407  0.3926740808759733  0.7841622779673426  1.0000
  C   C6        1.0  0.48932544190883825  0.8926740808919018  0.7158377218669689  1.0000
  C   C7        1.0  0.9893254408072928  0.607325919155884  0.21583772223441478  1.0000
  C   C8        1.0  0.5106745584134276  0.10732591913995533  0.28416227792183907  1.0000
  C   C9        1.0  0.6949425173547978  0.33283966196126374  0.7336485368466741  1.0000
  C   C10       1.0  0.8050574822180742  0.8328396619771924  0.7663514634476705  1.0000
  C   C11       1.0  0.3050574829641294  0.6671603380705935  0.26635146335508325  1.0000
  C   C12       1.0  0.19494251810085306  0.1671603380546649  0.23364853675408692  1.0000
  C   C13       1.0  0.5203765137720688  0.33530440927853195  0.686529360701635  1.0000
  C   C14       1.0  0.9796234858041417  0.8353044092944605  0.8134706391797604  1.0000
  C   C15       1.0  0.47962348473915933  0.6646955907533253  0.31347063907059014  1.0000
  C   C16       1.0  0.020376514518124056  0.16469559073739667  0.18652936060904776  1.0000
  C   C17       1.0  0.3176483569247075  0.27868677949493853  0.6841356624051576  1.0000
  C   C18       1.0  0.18235164268472748  0.7786867795108671  0.8158643374125712  1.0000
  C   C19       1.0  0.6823516433975583  0.7213132205369187  0.3158643373836507  1.0000
  C   C20       1.0  0.8176483576375384  0.2213132205209901  0.18413566237623685  1.0000
  C   C21       1.0  0.14793474686115085  0.283153403631544  0.6404729074795269  1.0000
  C   C22       1.0  0.35206525274828415  0.7831534036474725  0.8595270923382018  1.0000
  C   C23       1.0  0.8520652516500773  0.7168465964003132  0.35952709229269814  1.0000
  C   C24       1.0  0.6479347475739816  0.21684659638438467  0.1404729074506064  1.0000
  C   C25       1.0  0.17903933626613047  0.34512472250197423  0.5978817663824526  1.0000
  C   C26       1.0  0.3209606633399659  0.8451247225179028  0.9021182338482254  1.0000
  C   C27       1.0  0.8209606640527967  0.6548752775298831  0.40211823381930484  1.0000
  C   C28       1.0  0.6790393369789613  0.15487527751395438  0.097881766353532  1.0000
  C   C29       1.0  0.38108919805137964  0.40174666296745304  0.5997627273127929  1.0000
  C   C30       1.0  0.11891080336909308  0.9017466629833816  0.9002372725215187  1.0000
  C   C31       1.0  0.6189108022708862  0.5982533370644042  0.40023727247601515  1.0000
  C   C32       1.0  0.8810891969531727  0.0982533370484756  0.09976272726728933  1.0000
  C   C33       1.0  0.5486666009926785  0.3969974400275913  0.6437338199699768  1.0000
  C   C34       1.0  0.9513333985801935  0.8969974400435199  0.8562661803243677  1.0000
  C   C35       1.0  0.4513333975152111  0.6030025600042659  0.3562661802151977  1.0000
  C   C36       1.0  0.04866660173873364  0.10300255998833728  0.1437338198773896  1.0000
  C   C37       1.0  0.7802588120302728  0.20504158338382933  0.8599232077612005  1.0000
  C   C38       1.0  0.7197411875459379  0.7050415833997579  0.6400767921201949  1.0000
  C   C39       1.0  0.21974118828865438  0.7949584166480279  0.14007679244055704  1.0000
  C   C40       1.0  0.2802588109652904  0.29495841663209926  0.35992320765203023  1.0000
  C   C41       1.0  0.9506540225966281  0.19565397185651293  0.9042828388278791  1.0000
  C   C42       1.0  0.5493459769762439  0.6956539718724415  0.5957171614664656  1.0000
  C   C43       1.0  0.049345975911261365  0.8043460281753443  0.09571716135729542  1.0000
  C   C44       1.0  0.4506540233426834  0.3043460281594157  0.40428283873529175  1.0000
  C   C45       1.0  0.9259855891230704  0.12936379095649314  0.9432267479213547  1.0000
  C   C46       1.0  0.5740144122608393  0.6293637909724218  0.5567732523895729  1.0000
  C   C47       1.0  0.0740144111958568  0.8706362084118761  0.056773252280402656  1.0000
  C   C48       1.0  0.42598558805808795  0.37063620839594746  0.4432267478121846  1.0000
  C   C49       1.0  0.7303388745559636  0.06976685365738311  0.9382021675194218  1.0000
  C   C50       1.0  0.7696611250202471  0.5697668536733118  0.5617978323619734  1.0000
  C   C51       1.0  0.26966112576296364  0.9302331463744741  0.06179783268233559  1.0000
  C   C52       1.0  0.2303388753020188  0.4302331463585455  0.43820216742683465  1.0000
  C   C53       1.0  0.5515153150640182  0.08158170950321617  0.8959314870111432  1.0000
  C   C54       1.0  0.9484846863232299  0.5815817095191448  0.604068512886835  1.0000
  C   C55       1.0  0.44848468525824753  0.918418290528641  0.10406851277766485  1.0000
  C   C56       1.0  0.05151531399569719  0.4184182905127124  0.39593148731492234  1.0000
  C   C57       1.0  0.5778213809189617  0.1484497838536574  0.8572626918193095  1.0000
  C   C58       1.0  0.9221786186572489  0.648449783869586  0.6427373080620858  1.0000
  C   C59       1.0  0.42217861940330403  0.8515502161781999  0.14273730796949863  1.0000
  C   C60       1.0  0.07782138166167836  0.3515502161622712  0.3572626921396716  1.0000
  C   C61       1.0  0.214199107824091  0.4544344277959926  0.7887223423598846  1.0000
  C   C62       1.0  0.2858008917820054  0.9544344278119211  0.7112776578707934  1.0000
  C   C63       1.0  0.7858008906837985  0.5455655722358648  0.21127765782528982  1.0000
  C   C64       1.0  0.7141991085369218  0.045565572219936075  0.288722342330964  1.0000
  C   C65       1.0  0.38082740551078614  0.45012085774711985  0.8340559983525406  1.0000
  C   C66       1.0  0.11917259409531025  0.9501208577630484  0.6659440018781375  1.0000
  C   C67       1.0  0.619172594808141  0.5498791422847373  0.16594400184921695  1.0000
  C   C68       1.0  0.880827406223617  0.04987914226880872  0.33405599832361993  1.0000
  C   C69       1.0  0.5743774659651902  0.5083514143831668  0.8387208066643955  1.0000
  C   C70       1.0  0.9256225354187192  0.008351414367238118  0.661279193646532  1.0000
  C   C71       1.0  0.42562253435373687  0.4916485856486905  0.16127919353736178  1.0000
  C   C72       1.0  0.07437746490020791  0.9916485856646191  0.33872080655522546  1.0000
  C   C73       1.0  0.6100043611167855  0.5715470544894665  0.7969204502554964  1.0000
  C   C74       1.0  0.8899956384560865  0.07154705447353782  0.7030795500388481  1.0000
  C   C75       1.0  0.38999563920214175  0.4284529455423908  0.20307954994626093  1.0000
  C   C76       1.0  0.11000436005180299  0.9284529455583194  0.2969204501463263  1.0000
  C   C77       1.0  0.44703399194288423  0.5750331554120739  0.7508075337950132  1.0000
  C   C78       1.0  0.05296600766655076  0.0750331553961453  0.7491924660227156  1.0000
  C   C79       1.0  0.5529660083793816  0.42496684461978335  0.249192465993795  1.0000
  C   C80       1.0  0.9470339908446773  0.9249668446357119  0.2508075337495095  1.0000
  C   C81       1.0  0.251780592478299  0.5174351795657928  0.7471995325552049  1.0000
  C   C82       1.0  0.248219407131136  0.01743517954986422  0.7528004672625237  1.0000
  C   C83       1.0  0.7482194060329292  0.48256482046606436  0.25280046721702026  1.0000
  C   C84       1.0  0.7517805931877911  0.982564820481993  0.2471995329392336  1.0000
  C   C85       1.0  0.8601936282856218  0.15643475443228377  0.49319290722500536  1.0000
  C   C86       1.0  0.6398063709350983  0.6564347544482123  0.0068070929312485  1.0000
  C   C87       1.0  0.13980637203330518  0.8435652455995735  0.5068070929767521  1.0000
  C   C88       1.0  0.3601936293838289  0.3435652455836448  0.993192907270509  1.0000
  C   C89       1.0  0.7560577008849891  0.07541769847537595  0.47856634244075985  1.0000
  C   C90       1.0  0.7439422983357312  0.5754176984913045  0.021433657715494027  1.0000
  C   C91       1.0  0.24394229762623912  0.9245823015564812  0.5214336573314653  1.0000
  C   C92       1.0  0.25605770198319583  0.4245823015405527  0.9785663424862634  1.0000
  C   C93       1.0  0.5588911946621007  0.04288631656093025  0.507558153524499  1.0000
  C   C94       1.0  0.9411088067251475  0.5428863165768589  0.9924418463734794  1.0000
  C   C95       1.0  0.44110880566016514  0.957113683470927  0.4924418462643092  1.0000
  C   C96       1.0  0.05889119359377962  0.45711368345499837  0.007558153828278089  1.0000
  C   C97       1.0  0.48109177580217805  0.0953344029649242  0.5514920881361217  1.0000
  C   C98       1.0  0.018908223803918274  0.5953344029808528  0.9485079120945564  1.0000
  C   C99       1.0  0.518908224516749  0.9046655970669331  0.4485079120656357  1.0000
  C   C100      1.0  0.9810917765150089  0.4046655970510044  0.05149208810720112  1.0000
  C   C101      1.0  0.5969631467569998  0.17531727345753279  0.5638683982986348  1.0000
  C   C102      1.0  0.9030368528192108  0.6753172734734614  0.9361316015827607  1.0000
  C   C103      1.0  0.40303685175088977  0.8246827265743245  0.43613160188653977  1.0000
  C   C104      1.0  0.09696314750305499  0.3246827265583958  0.06386839820604746  1.0000
  N   N1        1.0  0.6807495536931557  0.26349760719379794  0.7691236815952197  1.0000
  N   N2        1.0  0.8192504458830546  0.7634976072097266  0.7308763182861757  1.0000
  N   N3        1.0  0.31925044662911006  0.7365023928380593  0.23087631819358842  1.0000
  N   N4        1.0  0.180749554439211  0.23650239282213067  0.2691236815026325  1.0000
  N   N5        1.0  0.9831667795857977  0.3345350544074089  0.8259052851183086  1.0000
  N   N6        1.0  0.5168332199904129  0.8345350544233375  0.6740947147630868  1.0000
  N   N7        1.0  0.01683322073646807  0.6654649456244484  0.17409471467049956  1.0000
  N   N8        1.0  0.48316678033185295  0.16546494560851976  0.32590528502572136  1.0000
  N   N9        1.0  0.8597240124143759  0.3977184100323929  0.7391389061433027  1.0000
  N   N10       1.0  0.6402759871618345  0.8977184100483214  0.7608610937380926  1.0000
  N   N11       1.0  0.1402759879078898  0.6022815893359763  0.26086109364550547  1.0000
  N   N12       1.0  0.3597240113460549  0.10228158998353572  0.23913890644708174  1.0000
  N   N13       1.0  0.7819304963845997  0.2060460253421659  0.5350524757629653  1.0000
  N   N14       1.0  0.718069503191611  0.7060460253580945  0.96494752411843  1.0000
  N   N15       1.0  0.2180695039376662  0.7939539746896913  0.4649475240258428  1.0000
  N   N16       1.0  0.28193049531961717  0.2939539746737627  0.03505247565379504  1.0000
  O   O1        1.0  0.01797584870073738  0.3532220322239135  0.5544866346005691  1.0000
  O   O2        1.0  0.48202415090535894  0.8532220322398422  0.9455133656301088  1.0000
  O   O3        1.0  0.9820241516181898  0.6467779678079437  0.4455133656011883  1.0000
  O   O4        1.0  0.5179758494135682  0.1467779677920151  0.054486634571648575  1.0000
  O   O5        1.0  0.7255044343730356  0.0020333606544649554  0.9745351071350257  1.0000
  O   O6        1.0  0.7744955652031751  0.5020333606703936  0.5254648927463698  1.0000
  O   O7        1.0  0.27449556413819254  0.9979666393773922  0.025464892637199556  1.0000
  O   O8        1.0  0.2255044351157522  0.4979666393614637  0.4745351074553877  1.0000
  O   O9        1.0  0.8040097652131405  0.6251938541444063  0.8030135450092614  1.0000
  O   O10       1.0  0.6959902343630701  0.12519385412847775  0.6969864548721342  1.0000
  O   O11       1.0  0.19599023510912533  0.37480614588745087  0.19698645477954682  1.0000
  O   O12       1.0  0.30400976414815806  0.8748061459033796  0.303013544900091  1.0000
