data_image0
_chemical_formula_structural       H96C40N20O16I4
_chemical_formula_sum              "H96 C40 N20 O16 I4"
_cell_length_a       5.637788971699084
_cell_length_b       10.445215881501445
_cell_length_c       27.741466959136957
_cell_angle_alpha    90.0
_cell_angle_beta     90.0
_cell_angle_gamma    90.0

_space_group_name_H-M_alt    "P 1"
_space_group_IT_number       1

loop_
  _space_group_symop_operation_xyz
  'x, y, z'

loop_
  _atom_site_type_symbol
  _atom_site_label
  _atom_site_symmetry_multiplicity
  _atom_site_fract_x
  _atom_site_fract_y
  _atom_site_fract_z
  _atom_site_occupancy
  H   H1        1.0  0.49448597916566334  0.3506126404228588  0.6560953830166968  1.0000
  H   H2        1.0  0.005514021570522036  0.6493873603907725  0.15609538300114167  1.0000
  H   H3        1.0  0.5055140205329625  0.8506126403509865  0.8439046170299686  1.0000
  H   H4        1.0  0.9944859799018487  0.14938736046264495  0.34390461701441344  1.0000
  H   H5        1.0  0.2125897130978977  0.38365020268245237  0.6819402725842204  1.0000
  H   H6        1.0  0.2874102858645427  0.6163497971738029  0.1819402725686653  1.0000
  H   H7        1.0  0.7874102866007281  0.88365020261058  0.8180597274624449  1.0000
  H   H8        1.0  0.7125897138340831  0.11634979724567523  0.3180597274468899  1.0000
  H   H9        1.0  0.3268518295470451  0.20080553372904547  0.7392971975926844  1.0000
  H   H10       1.0  0.17314817118914025  0.7991944661272098  0.2392971975771293  1.0000
  H   H11       1.0  0.6731481701515807  0.7008055336571731  0.760702802453981  1.0000
  H   H12       1.0  0.8268518285094855  0.29919446619908213  0.26070280243842586  1.0000
  H   H13       1.0  0.6717903719015171  0.1337179552673094  0.6947051797364491  1.0000
  H   H14       1.0  0.828209628533294  0.8662820445889458  0.19470517972089385  1.0000
  H   H15       1.0  0.3282096277971086  0.633717955195437  0.8052948203102164  1.0000
  H   H16       1.0  0.1717903711653318  0.3662820446608182  0.30529482029466126  1.0000
  H   H17       1.0  0.7363900566056149  0.17412659160267718  0.7564757394016655  1.0000
  H   H18       1.0  0.7636099438291962  0.825873408253578  0.2564757393861103  1.0000
  H   H19       1.0  0.2636099430930109  0.6741265915308048  0.743524260645  1.0000
  H   H20       1.0  0.2363900558694295  0.3258734083254504  0.2435242606294448  1.0000
  H   H21       1.0  0.8046715055801025  0.2852854544899707  0.7090321957008695  1.0000
  H   H22       1.0  0.6953284948547086  0.7147145453662844  0.20903219568531442  1.0000
  H   H23       1.0  0.1953284958922683  0.7852854544180984  0.7909678043457958  1.0000
  H   H24       1.0  0.30467150484391714  0.21471454543815688  0.2909678043302407  1.0000
  H   H25       1.0  0.554637336675201  0.4568481842918183  0.7439647204093665  1.0000
  H   H26       1.0  0.9453626637596102  0.5431518155644369  0.24396472039381123  1.0000
  H   H27       1.0  0.44536266302342487  0.956848184219946  0.7560352796372991  1.0000
  H   H28       1.0  0.05463733593901557  0.04315181563630927  0.2560352796217439  1.0000
  H   H29       1.0  0.5204437031483501  0.3482288802131635  0.7937099888204688  1.0000
  H   H30       1.0  0.9795562955127162  0.6517711196430918  0.2937099888049138  1.0000
  H   H31       1.0  0.47955629655027576  0.848228880141291  0.7062900112261965  1.0000
  H   H32       1.0  0.02044370418590968  0.1517711197149641  0.20629001121064136  1.0000
  H   H33       1.0  0.26193569631872  0.4131518016437278  0.7648356174261987  1.0000
  H   H34       1.0  0.2380643044174654  0.5868481982125274  0.2648356174106434  1.0000
  H   H35       1.0  0.7380643033799058  0.9131518015718553  0.7351643826204669  1.0000
  H   H36       1.0  0.7619356952811603  0.08684819828439985  0.2351643826049117  1.0000
  H   H37       1.0  0.8381604585983455  0.8322444053449694  0.6403893354366681  1.0000
  H   H38       1.0  0.6618395418364655  0.16775559451128588  0.14038933542111293  1.0000
  H   H39       1.0  0.16183954110028015  0.3322444054168417  0.8596106646099972  1.0000
  H   H40       1.0  0.33816045786216026  0.6677555944394135  0.3596106645944422  1.0000
  H   H41       1.0  0.9866618878293307  0.981125719780422  0.6480016661151813  1.0000
  H   H42       1.0  0.5133381108317354  0.01887428007583327  0.1480016660996262  1.0000
  H   H43       1.0  0.013338111869294997  0.48112571985229435  0.851998333931484  1.0000
  H   H44       1.0  0.4866618888668904  0.5188742800039609  0.351998333915929  1.0000
  H   H45       1.0  0.33131085242395564  0.5363439553146612  0.49036975189661025  1.0000
  H   H46       1.0  0.16868914653848474  0.46365604549897016  0.9903697519121654  1.0000
  H   H47       1.0  0.6686891472746701  0.036343955386533525  0.009630248118944872  1.0000
  H   H48       1.0  0.831310853160141  0.9636560454270978  0.5096302481345001  1.0000
  H   H49       1.0  0.028405068157728048  0.4219672374417635  0.5239962346408026  1.0000
  H   H50       1.0  0.47159493257845736  0.5780327633718678  0.02399623462524744  1.0000
  H   H51       1.0  0.9715949315408977  0.9219672373698911  0.9760037654058629  1.0000
  H   H52       1.0  0.5284050671201684  0.07803276344374015  0.4760037653903077  1.0000
  H   H53       1.0  0.20429068483790605  0.34071967591429314  0.5649612856842083  1.0000
  H   H54       1.0  0.29570931412453433  0.6592803239419621  0.06496128566865321  1.0000
  H   H55       1.0  0.7957093148607197  0.8407196758424208  0.935038714362457  1.0000
  H   H56       1.0  0.7042906855740915  0.1592803240138345  0.4350387143469019  1.0000
  H   H57       1.0  0.22062961140333914  0.30854910291588256  0.5063813777653606  1.0000
  H   H58       1.0  0.27937038755910126  0.6914508969403727  0.006381377749805463  1.0000
  H   H59       1.0  0.7793703882952866  0.8085491028440102  0.9936186222813048  1.0000
  H   H60       1.0  0.7206296121395245  0.1914508970122451  0.49361862226574965  1.0000
  H   H61       1.0  0.16895199781004508  0.5975171935941702  0.5736461966283517  1.0000
  H   H62       1.0  0.33104800292614034  0.40248280626208505  0.07364619661279656  1.0000
  H   H63       1.0  0.8310480018885806  0.09751719366604258  0.9263538034183136  1.0000
  H   H64       1.0  0.6689519967724855  0.9024828061902127  0.4263538034027586  1.0000
  H   H65       1.0  0.43265836168125976  0.5364291388101575  0.5991207770116087  1.0000
  H   H66       1.0  0.06734163728118063  0.46357086104609774  0.09912077699605348  1.0000
  H   H67       1.0  0.567341638017366  0.03642913888202985  0.9008792230350569  1.0000
  H   H68       1.0  0.9326583624174453  0.9635708609742253  0.4008792230195017  1.0000
  H   H69       1.0  0.6723549762199794  0.697413328996018  0.554473860832864  1.0000
  H   H70       1.0  0.8276450224410868  0.3025866718176133  0.0544738608173089  1.0000
  H   H71       1.0  0.3276450234786464  0.19741332906789041  0.9455261392138014  1.0000
  H   H72       1.0  0.17235497725753904  0.8025866717457409  0.44552613919824624  1.0000
  H   H73       1.0  0.4172299392204975  0.7507211606690922  0.5229972355597222  1.0000
  H   H74       1.0  0.08277005974194289  0.24927883918716304  0.022997235544167046  1.0000
  H   H75       1.0  0.5827700604781283  0.25072116074096457  0.9770027644869432  1.0000
  H   H76       1.0  0.9172299399566829  0.7492788391152906  0.4770027644713881  1.0000
  H   H77       1.0  0.22652701553941126  0.8050762172271371  0.6034821400995167  1.0000
  H   H78       1.0  0.2734729851967741  0.1949237826291181  0.1034821400839615  1.0000
  H   H79       1.0  0.7734729841592145  0.3050762172990095  0.8965178599471488  1.0000
  H   H80       1.0  0.7265270145018516  0.6949237825572457  0.3965178599315936  1.0000
  H   H81       1.0  0.49739265057217774  0.7684514165202886  0.6320365363456423  1.0000
  H   H82       1.0  0.0026073501640076274  0.23154858333596667  0.1320365363300872  1.0000
  H   H83       1.0  0.502607349126448  0.26845141659216093  0.8679634637010231  1.0000
  H   H84       1.0  0.9973926513083632  0.7315485832640942  0.3679634636854679  1.0000
  H   H85       1.0  0.40510381311979016  0.9781153818078303  0.5609052809975874  1.0000
  H   H86       1.0  0.09489618761639519  0.02188461804842481  0.060905280982032246  1.0000
  H   H87       1.0  0.5948961865788356  0.4781153818797028  0.9390947190490779  1.0000
  H   H88       1.0  0.9051038138559756  0.5218846179765524  0.4390947190335229  1.0000
  H   H89       1.0  0.9016285755846688  0.15003460031643992  0.5980259221488596  1.0000
  H   H90       1.0  0.5983714248501424  0.8499653995398153  0.09802592249377574  1.0000
  H   H91       1.0  0.09837142411395698  0.6500346002445675  0.9019740775373345  1.0000
  H   H92       1.0  0.4016285748484834  0.34996539961168766  0.4019740775217794  1.0000
  H   H93       1.0  0.6111745131463413  0.16658351055065834  0.5763690209155915  1.0000
  H   H94       1.0  0.8888254872884699  0.833416489305597  0.07636902090003642  1.0000
  H   H95       1.0  0.3888254883260295  0.666583510478786  0.9236309791310738  1.0000
  H   H96       1.0  0.11117451241015593  0.33341648937746926  0.4236309791155187  1.0000
  C   C1        1.0  0.23461268356083453  0.19549558411869553  0.6509895160411456  1.0000
  C   C2        1.0  0.26538731717535086  0.8045044157375597  0.15098951602559052  1.0000
  C   C3        1.0  0.7653873161377912  0.6954955840468231  0.8490104840055197  1.0000
  C   C4        1.0  0.73461268429702  0.3045044158094321  0.3490104839899646  1.0000
  C   C5        1.0  0.34848243874724155  0.3087192736447755  0.6769867447047317  1.0000
  C   C6        1.0  0.15151756021519885  0.6912807262114797  0.17698674468917658  1.0000
  C   C7        1.0  0.6515175609513842  0.8087192735729032  0.8230132553419337  1.0000
  C   C8        1.0  0.8484824394834269  0.19128072628335208  0.3230132553263786  1.0000
  C   C9        1.0  0.6811632892393711  0.21097376397004008  0.7212186475023541  1.0000
  C   C10       1.0  0.8188367111954401  0.7890262368435913  0.221218647486799  1.0000
  C   C11       1.0  0.31883671045925466  0.7109737638981677  0.7787813525443112  1.0000
  C   C12       1.0  0.18116329027693073  0.2890262359580875  0.27878135252875613  1.0000
  C   C13       1.0  0.4447154802327393  0.38073787225815986  0.7595705580760514  1.0000
  C   C14       1.0  0.05528452050344604  0.6192621285554715  0.25957055806049634  1.0000
  C   C15       1.0  0.5552845194658864  0.8807378721862875  0.7404294419706139  1.0000
  C   C16       1.0  0.9447154809689247  0.11926212862734384  0.24042944195505878  1.0000
  C   C17       1.0  0.6237352812693557  0.4292099072781983  0.5188556852888141  1.0000
  C   C18       1.0  0.8762647191654555  0.5707900925780568  0.018855685273259006  1.0000
  C   C19       1.0  0.37626471842927006  0.9292099072063259  0.9811443147578512  1.0000
  C   C20       1.0  0.12373528053317033  0.07079009264992928  0.48114431474229613  1.0000
  C   C21       1.0  0.376057759636407  0.48682245802171614  0.5241415178735147  1.0000
  C   C22       1.0  0.12394224109977847  0.5131775418345391  0.024141517857959562  1.0000
  C   C23       1.0  0.6239422400622189  0.9868224579498438  0.9758584818126795  1.0000
  C   C24       1.0  0.8760577603725923  0.013177541906411478  0.4758584821575956  1.0000
  C   C25       1.0  0.3588480502118345  0.5809011818267761  0.5663336363265186  1.0000
  C   C26       1.0  0.14115194875060585  0.4190988180294792  0.06633363631096345  1.0000
  C   C27       1.0  0.6411519494867912  0.08090118189864844  0.9336663637201468  1.0000
  C   C28       1.0  0.8588480509480199  0.9190988179576068  0.4336663637045917  1.0000
  C   C29       1.0  0.47915691657857  0.7093087011366788  0.5572831949648621  1.0000
  C   C30       1.0  0.020843084157615398  0.2906912987195764  0.05728319494930696  1.0000
  C   C31       1.0  0.5208430831200558  0.20930870120855125  0.9427168050818033  1.0000
  C   C32       1.0  0.9791569155410104  0.790691298647704  0.44271680506624816  1.0000
  C   C33       1.0  0.4195011948606569  0.8024138672752084  0.5980103173504314  1.0000
  C   C34       1.0  0.0804988058755285  0.1975861325810468  0.09801031733487635  1.0000
  C   C35       1.0  0.5804988048379689  0.3024138673470808  0.9019896826962339  1.0000
  C   C36       1.0  0.9195011938230973  0.6975861325091745  0.4019896826806788  1.0000
  C   C37       1.0  0.692084597275036  0.9889572678238543  0.6049408967708783  1.0000
  C   C38       1.0  0.8079154031597753  0.011042732032401033  0.10494089675532316  1.0000
  C   C39       1.0  0.30791540242358983  0.4889572678957266  0.8950591032757871  1.0000
  C   C40       1.0  0.19208459653885057  0.5110427319605286  0.39505910326023197  1.0000
  N   N1        1.0  0.44181396510294013  0.2707731120243203  0.7253995295072908  1.0000
  N   N2        1.0  0.058186033859500254  0.7292268887893111  0.22539952949173564  1.0000
  N   N3        1.0  0.5581860345956856  0.7707731119524478  0.7746004705393746  1.0000
  N   N4        1.0  0.9418139658391256  0.22922688790380732  0.2746004705238195  1.0000
  N   N5        1.0  0.8495594290675494  0.9280390506018532  0.633045380976722  1.0000
  N   N6        1.0  0.6504405713672619  0.07196094925440207  0.1330453809611669  1.0000
  N   N7        1.0  0.15044057063107646  0.42803905067372555  0.8669546190699434  1.0000
  N   N8        1.0  0.34955942833136394  0.5719609491825297  0.36695461905438825  1.0000
  N   N9        1.0  0.19805848633307074  0.3837573675331073  0.53085038911937  1.0000
  N   N10       1.0  0.30194151262936963  0.6162426323231478  0.03085038910381491  1.0000
  N   N11       1.0  0.801941513365555  0.8837573674612349  0.9691496109272953  1.0000
  N   N12       1.0  0.6980584870692561  0.11624263239502025  0.46914961091174023  1.0000
  N   N13       1.0  0.4963766991009978  0.9322429608415416  0.5879447213092664  1.0000
  N   N14       1.0  0.0036232998614426156  0.06775703901471364  0.0879447212937113  1.0000
  N   N15       1.0  0.5036233005976279  0.43224296091341396  0.9120552787373989  1.0000
  N   N16       1.0  0.9963766998371831  0.5677570389428412  0.4120552787218439  1.0000
  N   N17       1.0  0.7326203269994365  0.11215489495767182  0.5941840312295009  1.0000
  N   N18       1.0  0.7673796734353747  0.8878451048985834  0.09418403121394577  1.0000
  N   N19       1.0  0.26737967447293426  0.6121548948857994  0.9058159688171645  1.0000
  N   N20       1.0  0.23262032626325113  0.3878451049704558  0.40581596880160936  1.0000
  O   O1        1.0  0.1817599089188992  0.21547795522216354  0.6070118993636622  1.0000
  O   O2        1.0  0.3182400918172862  0.7845220446340916  0.10701189934810701  1.0000
  O   O3        1.0  0.8182400907797266  0.7154779551502911  0.8929881006830033  1.0000
  O   O4        1.0  0.6817599078813396  0.28452204470596404  0.3929881006674481  1.0000
  O   O5        1.0  0.19274687212574168  0.0954640814811638  0.6750263984807882  1.0000
  O   O6        1.0  0.3072531268366987  0.9045359183750914  0.175026398465233  1.0000
  O   O7        1.0  0.8072531275728841  0.5954640814092914  0.8249736015658773  1.0000
  O   O8        1.0  0.692746872861927  0.4045359184469638  0.3249736015503221  1.0000
  O   O9        1.0  0.7834049859210904  0.501068086038225  0.5011002107594555  1.0000
  O   O10       1.0  0.7165950127399757  0.4989319138180302  0.0011002107439003843  1.0000
  O   O11       1.0  0.21659501377753534  0.0010680861100973557  0.9988997892872099  1.0000
  O   O12       1.0  0.2834049869586501  0.9989319137461578  0.49889978927165474  1.0000
  O   O13       1.0  0.6551613990061828  0.31564304916272146  0.5334940834888146  1.0000
  O   O14       1.0  0.8448386014286285  0.6843569506935337  0.03349408347325937  1.0000
  O   O15       1.0  0.3448386006924431  0.8156430490908492  0.9665059165578509  1.0000
  O   O16       1.0  0.15516139826999728  0.18435695076540612  0.4665059165422958  1.0000
  I   I1        1.0  0.8660448776124582  0.5956871375937142  0.6798281131917013  1.0000
  I   I2        1.0  0.633955121048608  0.40431286226254104  0.1798281131761462  1.0000
  I   I3        1.0  0.13395512208616758  0.09568713766558658  0.8201718868549641  1.0000
  I   I4        1.0  0.3660448786500178  0.9043128621906688  0.320171886839409  1.0000
