data_image0
_chemical_formula_structural       H64C76N12O4S24
_chemical_formula_sum              "H64 C76 N12 O4 S24"
_cell_length_a       5.631053869184262
_cell_length_b       17.365394080678257
_cell_length_c       21.709509056557785
_cell_angle_alpha    90.0
_cell_angle_beta     91.8752412840702
_cell_angle_gamma    90.0

_space_group_name_H-M_alt    "P 1"
_space_group_IT_number       1

loop_
  _space_group_symop_operation_xyz
  'x, y, z'

loop_
  _atom_site_type_symbol
  _atom_site_label
  _atom_site_symmetry_multiplicity
  _atom_site_fract_x
  _atom_site_fract_y
  _atom_site_fract_z
  _atom_site_occupancy
  H   H1        1.0  0.9796641555321679  0.7809204908910615  0.5429245602194076  1.0000
  H   H2        1.0  0.02033584317304996  0.28092049091059057  0.957075439839599  1.0000
  H   H3        1.0  0.02033584462753104  0.2190795090698804  0.45707543965205777  1.0000
  H   H4        1.0  0.9796641552098319  0.7190795090503513  0.042924560016277  1.0000
  H   H5        1.0  0.2925105265903448  0.9589705348828784  0.1901826019096899  1.0000
  H   H6        1.0  0.7074894732450584  0.45897053490240747  0.30981739821925547  1.0000
  H   H7        1.0  0.7074894735673943  0.04102946507806354  0.8098173984223861  1.0000
  H   H8        1.0  0.29251052691464047  0.5410294650585344  0.6901826016522099  1.0000
  H   H9        1.0  0.3493432347222195  0.051735665532613696  0.15852767228190964  1.0000
  H   H10       1.0  0.6506567651151435  0.5517356655130846  0.341472327386425  1.0000
  H   H11       1.0  0.6506567654374793  0.9482643344283282  0.8414723275895557  1.0000
  H   H12       1.0  0.3493432332677384  0.4482643344478573  0.6585276724694509  1.0000
  H   H13       1.0  0.24903214166872303  0.04429171583591029  0.23564586012296093  1.0000
  H   H14       1.0  0.7509678599434971  0.5442917158163812  0.26435414002157387  1.0000
  H   H15       1.0  0.7509678584909759  0.9557082841250317  0.7643541397485045  1.0000
  H   H16       1.0  0.24903214021620176  0.45570828414456066  0.7356458598498915  1.0000
  H   H17       1.0  0.10354828634569657  0.039618624075194515  0.45206769238540706  1.0000
  H   H18       1.0  0.8964517152665237  0.5396186240556654  0.04793230775912772  1.0000
  H   H19       1.0  0.8964517138120425  0.9603813758857475  0.547932307946669  1.0000
  H   H20       1.0  0.10354828489317526  0.4603813759052765  0.9520676921123377  1.0000
  H   H21       1.0  0.27499728996707745  0.10730257150186258  0.4105903297315223  1.0000
  H   H22       1.0  0.7250027098683258  0.6073025714823336  0.08940967039742304  1.0000
  H   H23       1.0  0.7250027084158045  0.8926974284590794  0.5894096701243536  1.0000
  H   H24       1.0  0.27499729028941333  0.3926974284786084  0.9105903299346532  1.0000
  H   H25       1.0  0.24495984958668116  0.010791132014015362  0.3826847377580769  1.0000
  H   H26       1.0  0.7550401520255391  0.5107911319944863  0.11731526238645794  1.0000
  H   H27       1.0  0.7550401505730178  0.9892088679469265  0.6173152621133885  1.0000
  H   H28       1.0  0.24495984813220006  0.4892088679664556  0.8826847379456182  1.0000
  H   H29       1.0  0.7233764251842161  0.6954070707463227  0.5271161966125683  1.0000
  H   H30       1.0  0.2766235752978187  0.1954070707658518  0.9728838034620277  1.0000
  H   H31       1.0  0.276623574973523  0.3045929292146192  0.47288380371950783  1.0000
  H   H32       1.0  0.72337642486188  0.8045929291950902  0.027116196409437528  1.0000
  H   H33       1.0  0.3780367042188733  0.6287902784854922  0.38507591528460267  1.0000
  H   H34       1.0  0.62196329561653  0.12879027850502123  0.11492408484434269  1.0000
  H   H35       1.0  0.6219632959408257  0.3712097214754497  0.6149240845868627  1.0000
  H   H36       1.0  0.37803670454316896  0.8712097214559208  0.8850759150271227  1.0000
  H   H37       1.0  0.04350967108626703  0.5355210890576448  0.3971299242823063  1.0000
  H   H38       1.0  0.9564903287491361  0.03552108850131592  0.10287007584663913  1.0000
  H   H39       1.0  0.9564903290714721  0.46447891147915504  0.6028700760497698  1.0000
  H   H40       1.0  0.04350967141056273  0.964478911459626  0.8971299240248264  1.0000
  H   H41       1.0  0.5087222302828299  0.6126297762419959  0.5814800580495467  1.0000
  H   H42       1.0  0.49127777019920493  0.11262977626152484  0.9185199420250494  1.0000
  H   H43       1.0  0.49127776987686894  0.38737022371894614  0.41851994182191865  1.0000
  H   H44       1.0  0.5087222299585342  0.8873702236994171  0.08148005830702673  1.0000
  H   H45       1.0  0.07736068350770844  0.6572712146336849  0.6266473780199788  1.0000
  H   H46       1.0  0.9226393169743263  0.1572712146532139  0.8733526220546173  1.0000
  H   H47       1.0  0.9226393166519904  0.34272878532725715  0.37335262185148654  1.0000
  H   H48       1.0  0.07736068318341274  0.8427287853077281  0.1266473782774588  1.0000
  H   H49       1.0  0.11629629448357964  0.6892445932636453  0.7393390374946603  1.0000
  H   H50       1.0  0.8837037042216381  0.1892445932831743  0.7606609625643462  1.0000
  H   H51       1.0  0.8837037038973424  0.3107554066972966  0.26066096282182627  1.0000
  H   H52       1.0  0.11629629593806073  0.8107554066777677  0.23933903730711914  1.0000
  H   H53       1.0  0.8085657998037543  0.7751601257916424  0.785671063771606  1.0000
  H   H54       1.0  0.19143420067828065  0.2751601258111714  0.7143289363029901  1.0000
  H   H55       1.0  0.19143420035594474  0.22483987474515754  0.21432893609985934  1.0000
  H   H56       1.0  0.8085657994794584  0.7248398747256286  0.28567106402908604  1.0000
  H   H57       1.0  0.4704043542351471  0.8221659366708919  0.717600790602597  1.0000
  H   H58       1.0  0.5295956462468878  0.3221659366904208  0.7823992094719989  1.0000
  H   H59       1.0  0.529595645922592  0.17783406329005016  0.28239920972947913  1.0000
  H   H60       1.0  0.47040435391281105  0.6778340632705211  0.21760079039946634  1.0000
  H   H61       1.0  0.45646129635327537  0.7834161486226773  0.606582664372008  1.0000
  H   H62       1.0  0.5435387041287595  0.2834161486422064  0.8934173357025882  1.0000
  H   H63       1.0  0.5435387038044637  0.2165838513382646  0.39341733596006817  1.0000
  H   H64       1.0  0.45646129603093943  0.7165838513187356  0.10658266416887724  1.0000
  C   C1        1.0  0.974188475845314  0.7608155397233559  0.44462990015226395  1.0000
  C   C2        1.0  0.02581152399008919  0.260815539742885  0.05537009997668153  1.0000
  C   C3        1.0  0.025811524312425116  0.23918446023758602  0.5553701001798123  1.0000
  C   C4        1.0  0.9741884743927927  0.739184460218057  0.9446298998791945  1.0000
  C   C5        1.0  0.05603806260213002  0.7921274769862714  0.49837411478000276  1.0000
  C   C6        1.0  0.9439619390100902  0.2921274770058004  0.0016258853645319332  1.0000
  C   C7        1.0  0.9439619375575689  0.2078725229746706  0.5016258850914626  1.0000
  C   C8        1.0  0.056038061147648935  0.7078725229551416  0.9983741149675441  1.0000
  C   C9        1.0  0.329684868494987  0.8458648287368026  0.41682059993020404  1.0000
  C   C10       1.0  0.6703151313404162  0.3458648287563316  0.08317940019874139  1.0000
  C   C11       1.0  0.6703151316627521  0.1541351712241394  0.5831794004018721  1.0000
  C   C12       1.0  0.3296848688192827  0.6541351712046103  0.916820599672724  1.0000
  C   C13       1.0  0.4901384617994114  0.8877906523960583  0.3855544425982037  1.0000
  C   C14       1.0  0.5098615380379515  0.38779065241558736  0.114445557070131  1.0000
  C   C15       1.0  0.5098615383602874  0.11220934756488365  0.6144455572732617  1.0000
  C   C16       1.0  0.49013846212174733  0.6122093475453547  0.8855544428013343  1.0000
  C   C17       1.0  0.6439372612437139  0.9759675606128279  0.2998048401555282  1.0000
  C   C18       1.0  0.35606273859168935  0.4759675606323569  0.20019515997341722  1.0000
  C   C19       1.0  0.35606273891598506  0.02403243934811411  0.7001951597159372  1.0000
  C   C20       1.0  0.6439372615680095  0.5240324393285851  0.7998048398980481  1.0000
  C   C21       1.0  0.7431473800093844  0.004076888187569125  0.35336983042194203  1.0000
  C   C22       1.0  0.25685262160283573  0.5040768881680401  0.1466301697225927  1.0000
  C   C23       1.0  0.25685262014835464  0.9959231117733729  0.646630169910134  1.0000
  C   C24       1.0  0.7431473785568632  0.4959231117929018  0.8533698301488726  1.0000
  C   C25       1.0  0.357426787953006  0.017076231533953067  0.20071092902187934  1.0000
  C   C26       1.0  0.642573213661174  0.5170762315144241  0.2992890706620447  1.0000
  C   C27       1.0  0.642573212206693  0.982923768426989  0.7992890708495859  1.0000
  C   C28       1.0  0.3574267864985249  0.48292376844651796  0.7007109292094208  1.0000
  C   C29       1.0  0.15528205195446937  0.05782980422640523  0.4060297228005934  1.0000
  C   C30       1.0  0.8447179478809339  0.5578298042068762  0.09397027732835202  1.0000
  C   C31       1.0  0.8447179482052295  0.9421701957345366  0.593970277070872  1.0000
  C   C32       1.0  0.1552820522768053  0.44217019575406574  0.9060297230037241  1.0000
  C   C33       1.0  0.7767314360192115  0.7061772334694423  0.43287112852992604  1.0000
  C   C34       1.0  0.22326856381619173  0.20617723348897124  0.06712887159901938  1.0000
  C   C35       1.0  0.22326856414048743  0.2938227664914998  0.5671288713415393  1.0000
  C   C36       1.0  0.7767314363415474  0.7938227664719707  0.9328711287330568  1.0000
  C   C37       1.0  0.4721498827601981  0.627849783272765  0.4825467056505806  1.0000
  C   C38       1.0  0.5278501170752051  0.127849783292294  0.017453294478364776  1.0000
  C   C39       1.0  0.5278501173975411  0.372150216688177  0.5174532946814955  1.0000
  C   C40       1.0  0.4721498830844938  0.872150216668648  0.9825467053931006  1.0000
  C   C41       1.0  0.337757059962838  0.6054488726920587  0.4298871163068476  1.0000
  C   C42       1.0  0.6622429398725652  0.10544887271158769  0.07011288382209781  1.0000
  C   C43       1.0  0.6622429401968608  0.39455112726888325  0.5701128835646178  1.0000
  C   C44       1.0  0.33775706028517394  0.8945511272493543  0.9298871165099782  1.0000
  C   C45       1.0  0.15128198044985114  0.554413697453157  0.4367973553021194  1.0000
  C   C46       1.0  0.848718019385552  0.05441369747268606  0.063202644826826  1.0000
  C   C47       1.0  0.848718019707888  0.4455863025077849  0.5632026450299567  1.0000
  C   C48       1.0  0.15128198077414684  0.9455863024882559  0.9367973550446393  1.0000
  C   C49       1.0  0.09829364760673907  0.5270916909501253  0.49555589515621734  1.0000
  C   C50       1.0  0.9017063522286641  0.027091690969654334  0.0044441049727280265  1.0000
  C   C51       1.0  0.9017063525529598  0.47290830901081665  0.5044441047152479  1.0000
  C   C52       1.0  0.09829364793103475  0.9729083089912876  0.9955558948987373  1.0000
  C   C53       1.0  0.4064065054956132  0.5971251059333861  0.5396627543422254  1.0000
  C   C54       1.0  0.5935934949864217  0.09712510595291507  0.9603372457323706  1.0000
  C   C55       1.0  0.5935934946640856  0.40287489460341386  0.46033724552923994  1.0000
  C   C56       1.0  0.4064065051732773  0.9028748945838848  0.03966275413909474  1.0000
  C   C57       1.0  0.9480629243020857  0.6941145196014585  0.6488215400931518  1.0000
  C   C58       1.0  0.05193707618190886  0.1941145196209875  0.8511784595208335  1.0000
  C   C59       1.0  0.05193707585761317  0.3058854803594835  0.3511784597783136  1.0000
  C   C60       1.0  0.94806292397779  0.8058854803399544  0.1488215403506318  1.0000
  C   C61       1.0  0.9690759216514571  0.7122393043623297  0.7112419611000574  1.0000
  C   C62       1.0  0.030924078830577923  0.21223930438185867  0.7887580389745386  1.0000
  C   C63       1.0  0.030924078506282225  0.2877606955986123  0.28875803923201854  1.0000
  C   C64       1.0  0.9690759213291208  0.7877606955790832  0.21124196089692682  1.0000
  C   C65       1.0  0.7979523839277359  0.7593944559353722  0.7370509779978082  1.0000
  C   C66       1.0  0.20204761655429884  0.2593944559549013  0.7629490220767879  1.0000
  C   C67       1.0  0.20204761623196293  0.24060554402556972  0.26294902187365726  1.0000
  C   C68       1.0  0.7979523836034402  0.7406055440060406  0.23705097825528812  1.0000
  C   C69       1.0  0.6091795063316509  0.7856312731295724  0.6993868460563003  1.0000
  C   C70       1.0  0.39082049415038395  0.2856312731491014  0.8006131540182957  1.0000
  C   C71       1.0  0.39082049382804807  0.2143687268313696  0.300613153815165  1.0000
  C   C72       1.0  0.6091795060073552  0.7143687268118406  0.1993868463137804  1.0000
  C   C73       1.0  0.6011395037371365  0.7641605320529358  0.6375632767243655  1.0000
  C   C74       1.0  0.3988604967448982  0.2641605320724648  0.8624367233502305  1.0000
  C   C75       1.0  0.39886049642060256  0.23583946790800614  0.36243672360771056  1.0000
  C   C76       1.0  0.6011395034148006  0.7358394678884772  0.1375632765212349  1.0000
  N   N1        1.0  0.6629817524083664  0.679162299179988  0.48308937512482036  1.0000
  N   N2        1.0  0.3370182474270368  0.179162299199517  0.016910625004125008  1.0000
  N   N3        1.0  0.3370182477513325  0.32083770078095397  0.5169106247466451  1.0000
  N   N4        1.0  0.662981752732662  0.8208377007614249  0.9830893748673404  1.0000
  N   N5        1.0  0.2251421587021025  0.5491959650147774  0.5463894178819201  1.0000
  N   N6        1.0  0.774857840005075  0.04919596503430646  0.953610581716476  1.0000
  N   N7        1.0  0.7748578414575963  0.4508040349461645  0.45361058198954535  1.0000
  N   N8        1.0  0.2251421601546238  0.9508040349266356  0.04638941815498941  1.0000
  N   N9        1.0  0.768223658678826  0.7200590543414616  0.6120639552895495  1.0000
  N   N10       1.0  0.23177634180320889  0.22005905436099055  0.8879360447850466  1.0000
  N   N11       1.0  0.23177634147891316  0.2799409456194804  0.38793604504252666  1.0000
  N   N12       1.0  0.7682236583564901  0.7799409455999514  0.11206395508641878  1.0000
  O   O1        1.0  0.7267798004712347  0.6867422515489617  0.3785981325644335  1.0000
  O   O2        1.0  0.2732201993661283  0.18674225156849078  0.12140186710390119  1.0000
  O   O3        1.0  0.2732201979116472  0.31325774841198023  0.6214018672914424  1.0000
  O   O4        1.0  0.7267798007935705  0.8132577483924511  0.8785981327675643  1.0000
  S   S1        1.0  0.12951990890307807  0.7835449893497928  0.3785211692149811  1.0000
  S   S2        1.0  0.8704800909342849  0.28354498936932176  0.12147883045335357  1.0000
  S   S3        1.0  0.8704800912566208  0.21645501061114922  0.6214788306564842  1.0000
  S   S4        1.0  0.12951990922541398  0.7164550105916202  0.8785211694181119  1.0000
  S   S5        1.0  0.3024793708600492  0.8508742612665711  0.4971310230922322  1.0000
  S   S6        1.0  0.697520628975354  0.35087426128610016  0.0028689770367131733  1.0000
  S   S7        1.0  0.6975206292996496  0.14912573869437085  0.502868976779233  1.0000
  S   S8        1.0  0.3024793711843449  0.6491257386748418  0.9971310228347522  1.0000
  S   S9        1.0  0.49242839381982106  0.887864370849786  0.3050128565876067  1.0000
  S   S10       1.0  0.5075716060175419  0.387864370869315  0.19498714308072795  1.0000
  S   S11       1.0  0.5075716063398777  0.11213562911115595  0.6949871432838587  1.0000
  S   S12       1.0  0.492428394142157  0.6121356290916269  0.8050128567907374  1.0000
  S   S13       1.0  0.7056517195283074  0.947733831063003  0.42016141458881545  1.0000
  S   S14       1.0  0.29434828030905547  0.447733831082532  0.07983858507951921  1.0000
  S   S15       1.0  0.2943482806313914  0.052266168897939  0.5798385852826499  1.0000
  S   S16       1.0  0.7056517198506433  0.55226616887841  0.9201614147919461  1.0000
  S   S17       1.0  0.6675625720269904  0.01592253701329192  0.2266349018919982  1.0000
  S   S18       1.0  0.3324374278084127  0.5159225369937629  0.27336509823694716  1.0000
  S   S19       1.0  0.3324374281307486  0.9840774629476502  0.773365098440078  1.0000
  S   S20       1.0  0.6675625723512862  0.484077462967179  0.7266349016345182  1.0000
  S   S21       1.0  0.9013718391716876  0.09011184443784767  0.35965073790232527  1.0000
  S   S22       1.0  0.09862816066567542  0.5901118444183187  0.14034926176600937  1.0000
  S   S23       1.0  0.09862816098801136  0.9098881555230943  0.6403492619691401  1.0000
  S   S24       1.0  0.9013718394940234  0.4098881555426233  0.8596507381054559  1.0000
