data_image0
_chemical_formula_structural       H136C128N8O20Cl8
_chemical_formula_sum              "H136 C128 N8 O20 Cl8"
_cell_length_a       17.195346457038852
_cell_length_b       11.23603486740025
_cell_length_c       16.300493666606442
_cell_angle_alpha    90.0
_cell_angle_beta     117.63581207294563
_cell_angle_gamma    90.0

_space_group_name_H-M_alt    "P 1"
_space_group_IT_number       1

loop_
  _space_group_symop_operation_xyz
  'x, y, z'

loop_
  _atom_site_type_symbol
  _atom_site_label
  _atom_site_symmetry_multiplicity
  _atom_site_fract_x
  _atom_site_fract_y
  _atom_site_fract_z
  _atom_site_occupancy
  H   H1        1.0  0.8374720510934736  0.45052176321443227  0.45532507390867016  1.0000
  H   H2        1.0  0.1625279490081359  0.9505217637751173  0.044674926443645235  1.0000
  H   H3        1.0  0.16252794891795536  0.5494782361269502  0.5446749259316033  1.0000
  H   H4        1.0  0.837472051003293  0.04947823645625898  0.9553250733966282  1.0000
  H   H5        1.0  0.9329875928470492  0.5400670914261804  0.4924567426184732  1.0000
  H   H6        1.0  0.06701240695009224  0.04006709086549537  0.007543257041361291  1.0000
  H   H7        1.0  0.06701240716437973  0.4599329088051959  0.5075432572218002  1.0000
  H   H8        1.0  0.9329875924797717  0.9599329084758872  0.9924567427988844  1.0000
  H   H9        1.0  0.9704045038567627  0.32819646285533727  0.5380764226290864  1.0000
  H   H10       1.0  0.029595496368953606  0.8281964625260285  0.9619235773916258  1.0000
  H   H11       1.0  0.029595496154666168  0.671803537376039  0.46192357721118704  1.0000
  H   H12       1.0  0.9704045036424752  0.1718035377053477  0.038076422448647534  1.0000
  H   H13       1.0  0.07231950503945775  0.3664723560040658  0.7062407787295895  1.0000
  H   H14       1.0  0.9276804951862585  0.8664723556747571  0.7937592212911228  1.0000
  H   H15       1.0  0.9276804949719711  0.6335276442273104  0.2937592211106839  1.0000
  H   H16       1.0  0.07231950482517029  0.13352764455661917  0.20624077854915066  1.0000
  H   H17       1.0  0.07063037744371312  0.4899754143673118  0.6380070971190148  1.0000
  H   H18       1.0  0.9293696227820033  0.9899754149279967  0.8619929029016974  1.0000
  H   H19       1.0  0.9293696228721837  0.5100245849740708  0.3619929034137393  1.0000
  H   H20       1.0  0.07063037722942568  0.010024585303379486  0.13800709693857607  1.0000
  H   H21       1.0  0.055631379837143134  0.5570009459616481  0.7761180422218513  1.0000
  H   H22       1.0  0.9443686203885733  0.05700094540096316  0.723881957798861  1.0000
  H   H23       1.0  0.9443686201742858  0.4429990542697281  0.22388195761842214  1.0000
  H   H24       1.0  0.05563137992732371  0.9429990548304131  0.27611804273389323  1.0000
  H   H25       1.0  0.9255883101675938  0.5010612121126885  0.7927311773927486  1.0000
  H   H26       1.0  0.0744116900581227  0.001061211552003566  0.7072688226279638  1.0000
  H   H27       1.0  0.0744116898438352  0.4989387881186877  0.20726882244752493  1.0000
  H   H28       1.0  0.9255883099533062  0.998938787789379  0.29273117721230957  1.0000
  H   H29       1.0  0.9852293075933829  0.37201886958607816  0.7949453771990032  1.0000
  H   H30       1.0  0.01477069205076851  0.872018870146763  0.7050546228216813  1.0000
  H   H31       1.0  0.014770691836481059  0.6279811297553044  0.20505462264124247  1.0000
  H   H32       1.0  0.9852293082651283  0.12798113008461312  0.2949453777110729  1.0000
  H   H33       1.0  0.9345096581987149  0.2373451694901191  0.6539954547506004  1.0000
  H   H34       1.0  0.06549034202700152  0.737345170050804  0.8460045452701118  1.0000
  H   H35       1.0  0.065490341812714  0.7626548298512633  0.34600454508967293  1.0000
  H   H36       1.0  0.9345096579844274  0.2626548301805722  0.1539954545701616  1.0000
  H   H37       1.0  0.8380871219743674  0.2741312452613164  0.5514450588609554  1.0000
  H   H38       1.0  0.161912878251349  0.7741312458220013  0.9485549411597568  1.0000
  H   H39       1.0  0.1619128780370615  0.7258687540800661  0.448554940979318  1.0000
  H   H40       1.0  0.8380871220645479  0.22586875440937487  0.051445059372997384  1.0000
  H   H41       1.0  0.9803268142385988  0.674959981835187  0.6303684684913213  1.0000
  H   H42       1.0  0.019673185987117547  0.17495998127450207  0.8696315315293909  1.0000
  H   H43       1.0  0.019673185772830084  0.3250400183961892  0.36963153134895205  1.0000
  H   H44       1.0  0.9803268140243114  0.8250400189568742  0.1303684683108825  1.0000
  H   H45       1.0  0.9209953989029506  0.678161277525748  0.6948757977244674  1.0000
  H   H46       1.0  0.07900460132276578  0.17816127785505662  0.8051242022962447  1.0000
  H   H47       1.0  0.07900460141294639  0.3218387227056283  0.3051242028082867  1.0000
  H   H48       1.0  0.9209953986886631  0.8218387223763195  0.19487579754402862  1.0000
  H   H49       1.0  0.7979760003569047  0.4715810072264392  0.7827587609526054  1.0000
  H   H50       1.0  0.2020239992872467  0.9715810068971305  0.7172412390680791  1.0000
  H   H51       1.0  0.2020239990729592  0.528418993004937  0.2172412388876402  1.0000
  H   H52       1.0  0.7979760007241823  0.028418993334245708  0.2827587607721943  1.0000
  H   H53       1.0  0.7280014889068767  0.3572737346737001  0.8601991421020613  1.0000
  H   H54       1.0  0.27199851131883956  0.8572737352343851  0.6398008579186509  1.0000
  H   H55       1.0  0.2719985111045522  0.6427262655576761  0.13980085773821221  1.0000
  H   H56       1.0  0.7280014886925893  0.14272626499699112  0.36019914192162233  1.0000
  H   H57       1.0  0.8080762343751151  0.1539704086376055  0.6395324408073271  1.0000
  H   H58       1.0  0.19192376554613308  0.6539704083082968  0.8604675585209043  1.0000
  H   H59       1.0  0.19192376563631375  0.8460295915937707  0.3604675590329463  1.0000
  H   H60       1.0  0.8080762344652958  0.3460295919230794  0.13953244131936907  1.0000
  H   H61       1.0  0.6222272767440361  0.9324118431134807  0.8663838715170686  1.0000
  H   H62       1.0  0.37777272348168023  0.4324118434427895  0.6336161285036436  1.0000
  H   H63       1.0  0.37777272326739275  0.0675881562279018  0.1336161283232047  1.0000
  H   H64       1.0  0.6222272765297487  0.5675881567885868  0.36638387133662986  1.0000
  H   H65       1.0  0.45753291908837435  0.8936050002061937  0.7758371648013845  1.0000
  H   H66       1.0  0.5424670811373419  0.3936050005355025  0.7241628352193277  1.0000
  H   H67       1.0  0.5424670809230545  0.1063950000251824  0.22416283503888887  1.0000
  H   H68       1.0  0.45753291917855504  0.6063949996958736  0.2758371653134265  1.0000
  H   H69       1.0  0.18389383596889594  0.37621648471958413  0.6138929156099348  1.0000
  H   H70       1.0  0.8161061636752555  0.8762164843902754  0.8861070844107496  1.0000
  H   H71       1.0  0.8161061634609681  0.6237835155117921  0.38610708423031087  1.0000
  H   H72       1.0  0.1838938366406414  0.12378351495110715  0.11389291612200453  1.0000
  H   H73       1.0  0.222613707032005  0.254940875834322  0.3838047162691088  1.0000
  H   H74       1.0  0.7773862930696045  0.754940876395007  0.11619528408320659  1.0000
  H   H75       1.0  0.7773862932838921  0.7450591235070605  0.6161952842636454  1.0000
  H   H76       1.0  0.22261370694182436  0.24505912383636924  0.8838047157570668  1.0000
  H   H77       1.0  0.317117983628026  0.0923910278181785  0.4813625067838454  1.0000
  H   H78       1.0  0.6828820161691154  0.5923910274888697  0.018637492875989134  1.0000
  H   H79       1.0  0.6828820163834028  0.9076089724131977  0.5186374930564279  1.0000
  H   H80       1.0  0.31711798384231343  0.40760897274250646  0.9813625069642842  1.0000
  H   H81       1.0  0.2508848100057213  0.5457916259936743  0.45479686401524233  1.0000
  H   H82       1.0  0.7491151900958882  0.04579162543298932  0.04520313633707304  1.0000
  H   H83       1.0  0.7491151900057076  0.45420837423770194  0.545203135825031  1.0000
  H   H84       1.0  0.2508848102200088  0.9542083739083932  0.9547968641956812  1.0000
  H   H85       1.0  0.2177503570462921  0.45111335536223574  0.35726072559902255  1.0000
  H   H86       1.0  0.7822496430553174  0.9511133550329269  0.14273927475329284  1.0000
  H   H87       1.0  0.782249643269605  0.5488866448691404  0.6427392749337317  1.0000
  H   H88       1.0  0.21775035695611145  0.048886644308455504  0.8572607250869805  1.0000
  H   H89       1.0  0.4945369514057737  0.4606856022686647  0.9138017943767556  1.0000
  H   H90       1.0  0.5054630482383777  0.960685601939356  0.5861982056439288  1.0000
  H   H91       1.0  0.5054630486056552  0.5393143979627115  0.08619820546351775  1.0000
  H   H92       1.0  0.4945369517730512  0.039314397402026545  0.41380179419634455  1.0000
  H   H93       1.0  0.4601139139222469  0.32153726938691113  0.8529881800174431  1.0000
  H   H94       1.0  0.5398860857219047  0.8215372699475961  0.6470118200032415  1.0000
  H   H95       1.0  0.5398860860891821  0.6784627299544714  0.14701181982283038  1.0000
  H   H96       1.0  0.46011391401242746  0.17846273028378012  0.352988180529485  1.0000
  H   H97       1.0  0.6205483964623144  0.33880998545537816  0.9128653275775581  1.0000
  H   H98       1.0  0.379451603181837  0.8388099851260693  0.5871346724431264  1.0000
  H   H99       1.0  0.3794516038535825  0.661190014775998  0.0871346729551961  1.0000
  H   H100      1.0  0.620548396248027  0.1611900151053068  0.41286532739711934  1.0000
  H   H101      1.0  0.6347673929606064  0.3724665453061486  0.02651435269314997  1.0000
  H   H102      1.0  0.3652326077225681  0.8724665449768398  0.47348564765919315  1.0000
  H   H103      1.0  0.3652326070508226  0.6275334549252276  0.9734856471471235  1.0000
  H   H104      1.0  0.6347673925933289  0.12753345525453635  0.5265143528735611  1.0000
  H   H105      1.0  0.6051063637624579  0.2114408630835527  0.10963944977647651  1.0000
  H   H106      1.0  0.39489363633915164  0.7114408636442376  0.39036055057583885  1.0000
  H   H107      1.0  0.39489363624897106  0.7885591362578299  0.8903605500637969  1.0000
  H   H108      1.0  0.6051063639767454  0.28855913658713855  0.6096394499569154  1.0000
  H   H109      1.0  0.5719747945036724  0.07136078781015036  0.050903617970832635  1.0000
  H   H110      1.0  0.4280252055979373  0.5713607883708353  0.44909638238148275  1.0000
  H   H111      1.0  0.4280252052306598  0.9286392115312322  0.9490963825618939  1.0000
  H   H112      1.0  0.5719747944134916  0.42863921186054094  0.5509036174587907  1.0000
  H   H113      1.0  0.4308228277746933  0.15837956725847607  0.9361633351356404  1.0000
  H   H114      1.0  0.5691771724510231  0.6583795669291673  0.5638366648850718  1.0000
  H   H115      1.0  0.5691771722367357  0.8416204329729001  0.06383666470463298  1.0000
  H   H116      1.0  0.43082282756040574  0.34162043330220887  0.43616333495520154  1.0000
  H   H117      1.0  0.4447723657940505  0.19316204565162348  0.04998834532700085  1.0000
  H   H118      1.0  0.5552276340030909  0.6931620453223147  0.4500116543328337  1.0000
  H   H119      1.0  0.5552276342173783  0.8068379545797527  0.9500116545132725  1.0000
  H   H120      1.0  0.44477236600833797  0.30683795490906146  0.5499883455074397  1.0000
  H   H121      1.0  0.9312196190263892  0.6921138748476778  0.9663716379613656  1.0000
  H   H122      1.0  0.06878038119932721  0.19211387517698655  0.5336283620593467  1.0000
  H   H123      1.0  0.06878038098503972  0.30788612538369836  0.03362836187890785  1.0000
  H   H124      1.0  0.9312196188121018  0.8078861250543897  0.46637163778092666  1.0000
  H   H125      1.0  0.02748305641523947  0.6503801631305214  0.06994825318921513  1.0000
  H   H126      1.0  0.972516943381902  0.1503801634598301  0.4300517464706194  1.0000
  H   H127      1.0  0.9725169435961895  0.3496198371008548  0.9300517466510583  1.0000
  H   H128      1.0  0.027483056629526947  0.8496198367715461  0.569948253369654  1.0000
  H   H129      1.0  0.12852590000485686  0.5109020315213936  0.051771882424944064  1.0000
  H   H130      1.0  0.8714740997922845  0.01090203185070238  0.4482281172348905  1.0000
  H   H131      1.0  0.871474100006572  0.4890979687099826  0.9482281174153293  1.0000
  H   H132      1.0  0.12852590021914434  0.9890979683806738  0.5517718826053829  1.0000
  H   H133      1.0  0.09925459822403372  0.461917820765972  0.9367565658508811  1.0000
  H   H134      1.0  0.9007454020016826  0.9619178204366633  0.5632434341698311  1.0000
  H   H135      1.0  0.900745401787395  0.5380821794654043  0.06324343398939232  1.0000
  H   H136      1.0  0.09925459831421436  0.03808217890471928  0.43675656636292304  1.0000
  C   C1        1.0  0.8935894555683869  0.4875134479951479  0.5166116030401852  1.0000
  C   C2        1.0  0.1064105446573295  0.9875134476658393  0.9833883969805272  1.0000
  C   C3        1.0  0.10641054444304196  0.5124865522362283  0.48338839680008816  1.0000
  C   C4        1.0  0.8935894556585676  0.01248655256553702  0.016611603552227214  1.0000
  C   C5        1.0  0.9496719507237085  0.38622417705295775  0.5786125348462177  1.0000
  C   C6        1.0  0.050328049502007914  0.8862241776136427  0.9213874651744945  1.0000
  C   C7        1.0  0.050328049287720424  0.6137758222884249  0.4213874649940557  1.0000
  C   C8        1.0  0.949671950509421  0.11377582261773354  0.07861253466577883  1.0000
  C   C9        1.0  0.030306824314581825  0.43825122190452437  0.6615247446666997  1.0000
  C   C10       1.0  0.9696931759111345  0.9382512215752158  0.8384752553540125  1.0000
  C   C11       1.0  0.9696931756968471  0.5617487783268518  0.3384752551735736  1.0000
  C   C12       1.0  0.030306824100294342  0.06174877776616685  0.16152474448626097  1.0000
  C   C13       1.0  0.9989012149376597  0.5184441458882573  0.7161184465239581  1.0000
  C   C14       1.0  0.0010987852880566598  0.018444146217566  0.7838815534967541  1.0000
  C   C15       1.0  0.0010987850737692478  0.4815558534531253  0.2838815533163154  1.0000
  C   C16       1.0  0.9989012150278402  0.9815558540138102  0.21611844703600003  1.0000
  C   C17       1.0  0.9449071017736007  0.4447877110545437  0.7502045497021911  1.0000
  C   C18       1.0  0.05509289845211556  0.9447877107252349  0.7497954503185211  1.0000
  C   C19       1.0  0.05509289823782812  0.5552122891768325  0.24979545013808235  1.0000
  C   C20       1.0  0.9449071015593132  0.05521228950614125  0.2502045495217522  1.0000
  C   C21       1.0  0.8632541436928336  0.3905463254418792  0.6681252824131604  1.0000
  C   C22       1.0  0.1367458565328828  0.8905463251125705  0.8318747176075518  1.0000
  C   C23       1.0  0.13674585631859526  0.609453674789497  0.33187471742711294  1.0000
  C   C24       1.0  0.863254143478546  0.10945367511880572  0.16812528223272155  1.0000
  C   C25       1.0  0.8947774315604716  0.3122172716087065  0.611953429989619  1.0000
  C   C26       1.0  0.10522256808367986  0.8122172721693913  0.8880465700310657  1.0000
  C   C27       1.0  0.10522256845095723  0.687782727732676  0.38804656985065444  1.0000
  C   C28       1.0  0.8947774319277491  0.18778272806198476  0.11195342980920783  1.0000
  C   C29       1.0  0.9418949559275586  0.619784394778341  0.6544124038226679  1.0000
  C   C30       1.0  0.05810504429815779  0.11978439510764971  0.8455875961980444  1.0000
  C   C31       1.0  0.05810504408387038  0.38021560545303523  0.34558759601760564  1.0000
  C   C32       1.0  0.9418949557132711  0.8802156051237265  0.1544124036422289  1.0000
  C   C33       1.0  0.8120121587344212  0.3213505309133516  0.7075093502257904  1.0000
  C   C34       1.0  0.1879878409097303  0.8213505305840428  0.7924906497948941  1.0000
  C   C35       1.0  0.1879878406954428  0.6786494693180246  0.2924906496144553  1.0000
  C   C36       1.0  0.8120121594061667  0.17864946964733336  0.20750935073786006  1.0000
  C   C37       1.0  0.786625101583486  0.3767001758138302  0.7687293677807385  1.0000
  C   C38       1.0  0.21337489864223033  0.8767001754845214  0.7312706322399736  1.0000
  C   C39       1.0  0.21337489842794283  0.6232998244175461  0.23127063205953477  1.0000
  C   C40       1.0  0.7866251016736667  0.12329982385686107  0.2687293682927806  1.0000
  C   C41       1.0  0.7470413182628023  0.3132606993070323  0.812721801822012  1.0000
  C   C42       1.0  0.25295868196291404  0.8132606989777236  0.6872781981987003  1.0000
  C   C43       1.0  0.25295868174862657  0.6867393009243439  0.18727819801826134  1.0000
  C   C44       1.0  0.7470413180485148  0.18673930125365265  0.3127218016415732  1.0000
  C   C45       1.0  0.7298974071060242  0.19246318879574253  0.7947594602734178  1.0000
  C   C46       1.0  0.27010259311969215  0.6924631884664337  0.7052405397472944  1.0000
  C   C47       1.0  0.27010259290540467  0.8075368114356336  0.2052405395668556  1.0000
  C   C48       1.0  0.7298974068917367  0.3075368117649424  0.29475946009297893  1.0000
  C   C49       1.0  0.7508970139048932  0.13715171127415346  0.730709387405288  1.0000
  C   C50       1.0  0.24910298573925835  0.6371517109448447  0.7692906126153964  1.0000
  C   C51       1.0  0.24910298552497084  0.8628482889572227  0.26929061243495755  1.0000
  C   C52       1.0  0.7508970142721705  0.3628482883965378  0.23070938722487697  1.0000
  C   C53       1.0  0.7919959934708076  0.20077724006938497  0.6880881691980147  1.0000
  C   C54       1.0  0.2080040067549088  0.7007772397400763  0.8119118308226976  1.0000
  C   C55       1.0  0.20800400654062126  0.7992227601619912  0.3119118306422587  1.0000
  C   C56       1.0  0.7919959935609883  0.2992227596013063  0.18808816971005674  1.0000
  C   C57       1.0  0.6075901367265711  0.10371979739767805  0.7986906016587587  1.0000
  C   C58       1.0  0.39240986349914525  0.603719797958363  0.7013093983619536  1.0000
  C   C59       1.0  0.3924098635893259  0.8962802028336981  0.20130939887399554  1.0000
  C   C60       1.0  0.6075901365122837  0.39628020227301325  0.29869060147831983  1.0000
  C   C61       1.0  0.576695435002101  0.996450990240699  0.8176563472335135  1.0000
  C   C62       1.0  0.42330456522361537  0.4964509905700078  0.6823436527871987  1.0000
  C   C63       1.0  0.42330456531379596  0.0035490099906771238  0.18234365329924063  1.0000
  C   C64       1.0  0.5766954347878135  0.5035490096613684  0.3176563470530747  1.0000
  C   C65       1.0  0.4878659148974187  0.9759946938058357  0.7693582233860922  1.0000
  C   C66       1.0  0.5121340847467328  0.4759946941351445  0.7306417766345923  1.0000
  C   C67       1.0  0.5121340845324454  0.024005305535546795  0.2306417764541535  1.0000
  C   C68       1.0  0.48786591526469597  0.5240053060962317  0.26935822320568104  1.0000
  C   C69       1.0  0.43759338688046745  0.06587084311631794  0.7069934575072386  1.0000
  C   C70       1.0  0.5624066133452488  0.5658708427870092  0.7930065425134735  1.0000
  C   C71       1.0  0.5624066131309615  0.9341291571150583  0.29300654233303475  1.0000
  C   C72       1.0  0.43759338666618  0.43412915655437334  0.20699345732679983  1.0000
  C   C73       1.0  0.2999609185866049  0.1402630650935893  0.5995156498622138  1.0000
  C   C74       1.0  0.7000390816391114  0.6402630647642805  0.9004843501584984  1.0000
  C   C75       1.0  0.7000390817292921  0.8597369351377869  0.4004843506705404  1.0000
  C   C76       1.0  0.2999609183723174  0.359736934577102  0.09951564968177498  1.0000
  C   C77       1.0  0.2618473217974812  0.22032948626589674  0.6357244151088248  1.0000
  C   C78       1.0  0.7381526784282352  0.720329485936588  0.8642755849118875  1.0000
  C   C79       1.0  0.7381526785184157  0.7796705139654795  0.36427558542392935  1.0000
  C   C80       1.0  0.26184732158319374  0.27967051340479454  0.13572441492838602  1.0000
  C   C81       1.0  0.21086421490328017  0.31475764820390695  0.5821732587210254  1.0000
  C   C82       1.0  0.7891357847408712  0.8147576478745983  0.9178267412996589  1.0000
  C   C83       1.0  0.7891357845265838  0.6852423520274693  0.4178267411192202  1.0000
  C   C84       1.0  0.21086421527055763  0.18524235235677797  0.08217325854061443  1.0000
  C   C85       1.0  0.1957690650282655  0.32966096080271745  0.49059214490669834  1.0000
  C   C86       1.0  0.8042309347688759  0.8296609613634023  0.009407854753136222  1.0000
  C   C87       1.0  0.8042309349831634  0.670339038538665  0.5094078549335751  1.0000
  C   C88       1.0  0.19576906524255297  0.17033903886797383  0.9905921450871371  1.0000
  C   C89       1.0  0.2333452077366492  0.24657758032047122  0.4549296033018642  1.0000
  C   C90       1.0  0.7666547920604921  0.7465775808811562  0.045070396357970374  1.0000
  C   C91       1.0  0.7666547922747797  0.7534224190209113  0.5450703965384093  1.0000
  C   C92       1.0  0.2333452079509366  0.25342241935022003  0.9549296034823029  1.0000
  C   C93       1.0  0.28538756505595175  0.15324768393126265  0.508597016458592  1.0000
  C   C94       1.0  0.7146124342837316  0.653247683601954  0.9914029828696116  1.0000
  C   C95       1.0  0.7146124343739122  0.8467523163001136  0.49140298338165356  1.0000
  C   C96       1.0  0.28538756572769725  0.3467523166294223  0.008597016970661774  1.0000
  C   C97       1.0  0.13943691678206382  0.43108924964743583  0.4303435612934096  1.0000
  C   C98       1.0  0.8605630830150776  0.9310892493181272  0.06965643836642493  1.0000
  C   C99       1.0  0.860563083229365  0.5689107505839403  0.5696564385468638  1.0000
  C   C100      1.0  0.1394369169963513  0.06891075002325539  0.9303435614738484  1.0000
  C   C101      1.0  0.1932690365445558  0.5075336964773465  0.3954674668109835  1.0000
  C   C102      1.0  0.8067309635570536  0.007533696806655223  0.1045325335413319  1.0000
  C   C103      1.0  0.8067309634668731  0.4924663037540298  0.6045325330292899  1.0000
  C   C104      1.0  0.19326903675884333  0.992466303424721  0.8954674669914224  1.0000
  C   C105      1.0  0.4994619566891196  0.3634273966030172  0.9214092184442692  1.0000
  C   C106      1.0  0.5005380429550319  0.8634273962737085  0.5785907815764154  1.0000
  C   C107      1.0  0.5005380427407444  0.636572603628359  0.07859078139597662  1.0000
  C   C108      1.0  0.49946195736086496  0.13657260395766774  0.42140921895633876  1.0000
  C   C109      1.0  0.5944198265951669  0.3229394926966404  0.961866267987827  1.0000
  C   C110      1.0  0.4055801736305494  0.8229394923673318  0.5381337320328852  1.0000
  C   C111      1.0  0.4055801737207301  0.6770605075347358  0.03813373254492724  1.0000
  C   C112      1.0  0.5944198263808794  0.17706050697405082  0.46186626780738815  1.0000
  C   C113      1.0  0.5662009830984087  0.16846071522007977  0.041675782232515744  1.0000
  C   C114      1.0  0.4337990170032007  0.6684607157807647  0.4583242181197996  1.0000
  C   C115      1.0  0.4337990172174882  0.8315392841213028  0.9583242183002385  1.0000
  C   C116      1.0  0.5662009830082282  0.3315392844506115  0.5416757817204737  1.0000
  C   C117      1.0  0.47103560987522547  0.20797143899756104  0.0009904457291114823  1.0000
  C   C118      1.0  0.528964389921916  0.7079714386682523  0.4990095539307231  1.0000
  C   C119      1.0  0.5289643901362034  0.792028561233815  0.9990095541111619  1.0000
  C   C120      1.0  0.4710356095079481  0.29202856067313016  0.5009904459095226  1.0000
  C   C121      1.0  0.9763221847997189  0.6186536213204494  0.002070615515704778  1.0000
  C   C122      1.0  0.02367781499742259  0.11865362164975818  0.4979293841441298  1.0000
  C   C123      1.0  0.02367781521171003  0.3813463789109267  0.9979293843245687  1.0000
  C   C124      1.0  0.9763221850140064  0.881346378581618  0.5020706156961436  1.0000
  C   C125      1.0  0.07311712137954825  0.4853715215696768  0.9846114934745395  1.0000
  C   C126      1.0  0.9268828782646032  0.9853715212403681  0.515388506546145  1.0000
  C   C127      1.0  0.9268828789363487  0.5146284786616995  0.01538850705821473  1.0000
  C   C128      1.0  0.07311712116526076  0.014628478101014508  0.48461149329410064  1.0000
  N   N1        1.0  0.5564764668844603  0.18649852236395292  0.7413134580912859  1.0000
  N   N2        1.0  0.4435235333412562  0.6864985220346441  0.7586865419294264  1.0000
  N   N3        1.0  0.4435235331269687  0.8135014778674233  0.2586865417489875  1.0000
  N   N4        1.0  0.5564764669746408  0.31350147730673833  0.2413134586033279  1.0000
  N   N5        1.0  0.4696082449553939  0.1677535565031686  0.6950970078683099  1.0000
  N   N6        1.0  0.5303917552703225  0.6677535570638535  0.8049029921524024  1.0000
  N   N7        1.0  0.530391755056035  0.8322464428382139  0.3049029919719635  1.0000
  N   N8        1.0  0.46960824474110635  0.33224644316752266  0.19509700768787105  1.0000
  O   O1        1.0  0.6963195590873253  0.12455256738837493  0.8428788632142412  1.0000
  O   O2        1.0  0.30368044113839104  0.6245525670590663  0.657121136806471  1.0000
  O   O3        1.0  0.30368044122857163  0.8754474328430013  0.15712113731851304  1.0000
  O   O4        1.0  0.6963195588730378  0.3754474322823163  0.34287886303380233  1.0000
  O   O5        1.0  0.3494345340505574  0.045163976971301006  0.6537803782476865  1.0000
  O   O6        1.0  0.6505654661751589  0.5451639775319859  0.8462196217730256  1.0000
  O   O7        1.0  0.6505654659608715  0.9548360223700815  0.34621962159258685  1.0000
  O   O8        1.0  0.34943453383627  0.4548360226993902  0.15378037806724776  1.0000
  O   O9        1.0  0.46319068281551434  0.3333537937717914  0.9822734960613192  1.0000
  O   O10       1.0  0.536809317410202  0.8333537943324764  0.517726503959393  1.0000
  O   O11       1.0  0.5368093171959145  0.6666462055695911  0.017726503778954197  1.0000
  O   O12       1.0  0.46319068260122687  0.16664620589889986  0.48227349588088037  1.0000
  O   O13       1.0  0.6021417586060053  0.19754941722725175  0.9803182440681725  1.0000
  O   O14       1.0  0.39785824103814615  0.6975494177879367  0.5196817559525121  1.0000
  O   O15       1.0  0.3978582414054236  0.8024505830041245  0.019681755772100983  1.0000
  O   O16       1.0  0.6021417589732827  0.30245058244343953  0.4803182438877613  1.0000
  O   O17       1.0  0.01607627103131807  0.585434253954214  0.9451712187439469  1.0000
  O   O18       1.0  0.9839237291943984  0.08543425428352269  0.5548287812767654  1.0000
  O   O19       1.0  0.9839237289801109  0.41456574538716856  0.05482878109632649  1.0000
  O   O20       1.0  0.016076270817030554  0.9145657459478534  0.44517121856350805  1.0000
  Cl  Cl1       1.0  0.725434776180275  0.988674858266109  0.7040786776790943  1.0000
  Cl  Cl2       1.0  0.2745652240454414  0.4886748585954177  0.7959213223416179  1.0000
  Cl  Cl3       1.0  0.27456522413562207  0.011325141965267196  0.29592132285365996  1.0000
  Cl  Cl4       1.0  0.7254347759659874  0.5113251416359584  0.2040786774986555  1.0000
  Cl  Cl5       1.0  0.2788982771147  0.20127549680016846  0.748433088024315  1.0000
  Cl  Cl6       1.0  0.7211017231110164  0.7012754964708597  0.7515669119963971  1.0000
  Cl  Cl7       1.0  0.7211017228967288  0.7987245034312078  0.2515669118159583  1.0000
  Cl  Cl8       1.0  0.2788982769004126  0.2987245037605165  0.24843308784387622  1.0000
