data_image0
_chemical_formula_structural       H12C16N4F8I4
_chemical_formula_sum              "H12 C16 N4 F8 I4"
_cell_length_a       8.593726236280359
_cell_length_b       8.756002142853893
_cell_length_c       9.482038908786034
_cell_angle_alpha    82.02204056915575
_cell_angle_beta     69.79782609332972
_cell_angle_gamma    64.23873751842612

_space_group_name_H-M_alt    "P 1"
_space_group_IT_number       1

loop_
  _space_group_symop_operation_xyz
  'x, y, z'

loop_
  _atom_site_type_symbol
  _atom_site_label
  _atom_site_symmetry_multiplicity
  _atom_site_fract_x
  _atom_site_fract_y
  _atom_site_fract_z
  _atom_site_occupancy
  H   H1        1.0  0.5746129859427149  0.7579866629003065  0.5402928769655262  1.0000
  H   H2        1.0  0.4253870148423725  0.2420133362144011  0.4597071231840863  1.0000
  H   H3        1.0  0.5423097187976518  0.8379124319529999  0.7176508216378108  1.0000
  H   H4        1.0  0.45769028141592133  0.16208756842978414  0.28234917851266567  1.0000
  H   H5        1.0  0.8970915523487838  0.7200268346201961  0.45340355532695004  1.0000
  H   H6        1.0  0.10290844786478935  0.279973165762588  0.5465964448235264  1.0000
  H   H7        1.0  0.8606091440808135  0.7976593912087869  0.6320131917051145  1.0000
  H   H8        1.0  0.13939085497424078  0.20234060916347224  0.3679868084442612  1.0000
  H   H9        1.0  0.9425549064451041  0.8984351733604184  0.46413807608934515  1.0000
  H   H10       1.0  0.057445094204896  0.1015648270063988  0.5358619229372725  1.0000
  H   H11       1.0  0.6955943175194673  0.9103695913143468  0.31669582514093525  1.0000
  H   H12       1.0  0.3044056832656199  0.08963040780036086  0.6833041750086772  1.0000
  C   C1        1.0  0.9375585072531667  0.38027014780525553  0.08864198234819655  1.0000
  C   C2        1.0  0.06244149237340162  0.6197298512989272  0.9113580178003152  1.0000
  C   C3        1.0  0.9259117877067096  0.5194492289507555  0.1540944566456668  1.0000
  C   C4        1.0  0.07408821307837776  0.4805507701639521  0.8459055435039456  1.0000
  C   C5        1.0  0.9863858705691873  0.6369444194302901  0.06713574502125758  1.0000
  C   C6        1.0  0.013614129644385815  0.363055580952494  0.9328642551292189  1.0000
  C   C7        1.0  0.5359720006399284  0.8729081645974268  0.6036669692271716  1.0000
  C   C8        1.0  0.4640279984151258  0.1270918357748323  0.3963330309222042  1.0000
  C   C9        1.0  0.8520919453182437  0.8349358655886547  0.5187795445368282  1.0000
  C   C10       1.0  0.14790805489532946  0.1650641347941294  0.4812204556136481  1.0000
  C   C11       1.0  0.6198596429727169  0.49548245918509126  0.8574797950379166  1.0000
  C   C12       1.0  0.3801403560823374  0.5045175411871679  0.14252020511145908  1.0000
  C   C13       1.0  0.544203176448706  0.3774177560498549  0.8920466817758642  1.0000
  C   C14       1.0  0.4557968226063481  0.6225822443224043  0.10795331837351158  1.0000
  C   C15       1.0  0.42437077656702366  0.384022242511127  0.03677065715653012  1.0000
  C   C16       1.0  0.5756292236465492  0.6159777578716572  0.9632293429939465  1.0000
  N   N1        1.0  0.6638304260028044  0.9530730963608025  0.5320299768330273  1.0000
  N   N2        1.0  0.3361695752187097  0.04692690273793828  0.46797002219272654  1.0000
  N   N3        1.0  0.6503290463817292  0.012520657779306067  0.3857126583250455  1.0000
  N   N4        1.0  0.3496709526733251  0.9874793425929531  0.6142873418243303  1.0000
  F   F1        1.0  0.8556201465963781  0.5421378551605155  0.3058173139892501  1.0000
  F   F2        1.0  0.14437985405362186  0.45786214520630164  0.6941826850373676  1.0000
  F   F3        1.0  0.9709636232119455  0.7702805756238418  0.13782051965559697  1.0000
  F   F4        1.0  0.02903637627953553  0.22971942473245055  0.86217947936992  1.0000
  F   F5        1.0  0.738468405881839  0.4956529030680799  0.7185262528057628  1.0000
  F   F6        1.0  0.26153159433173406  0.5043470973147042  0.28147374734471375  1.0000
  F   F7        1.0  0.34789094702139034  0.27053232690653817  0.07780736090555883  1.0000
  F   F8        1.0  0.6521090531921827  0.7294676734762459  0.9221926392449177  1.0000
  I   I1        1.0  0.8354362744836029  0.20837281456270174  0.21990131666335572  1.0000
  I   I2        1.0  0.16456372457145113  0.7916271858095574  0.78009868348602  1.0000
  I   I3        1.0  0.5972367071826126  0.20190184422763813  0.7301021772158712  1.0000
  I   I4        1.0  0.4027632918724417  0.7980981561446211  0.2698978229335044  1.0000
