data_image0
_chemical_formula_structural       H12C16N4F8I4
_chemical_formula_sum              "H12 C16 N4 F8 I4"
_cell_length_a       6.369605287498283
_cell_length_b       8.505926376453502
_cell_length_c       10.916145057686578
_cell_angle_alpha    104.07434668469632
_cell_angle_beta     95.72795661447202
_cell_angle_gamma    93.33800149067021

_space_group_name_H-M_alt    "P 1"
_space_group_IT_number       1

loop_
  _space_group_symop_operation_xyz
  'x, y, z'

loop_
  _atom_site_type_symbol
  _atom_site_label
  _atom_site_symmetry_multiplicity
  _atom_site_fract_x
  _atom_site_fract_y
  _atom_site_fract_z
  _atom_site_occupancy
  H   H1        1.0  0.7977349634259325  0.3421985258009094  0.9477628456593462  1.0000
  H   H2        1.0  0.20226503572651158  0.6578014738940727  0.052237154085077925  1.0000
  H   H3        1.0  0.6350705757287335  0.2778101153438821  0.05310507265154216  1.0000
  H   H4        1.0  0.3649294237064899  0.722189885829293  0.9468949280486623  1.0000
  H   H5        1.0  0.6209984315076791  0.16167228223711103  0.8904473195377831  1.0000
  H   H6        1.0  0.3790015676447652  0.8383277174578712  0.10955268020664106  1.0000
  H   H7        1.0  0.8979309666276848  0.806947496271805  0.11432936960943742  1.0000
  H   H8        1.0  0.10206903409410786  0.19305250342310273  0.8856706301315319  1.0000
  H   H9        1.0  0.06925861290105893  0.9901989772218548  0.17619593207581008  1.0000
  H   H10       1.0  0.9307413863425367  0.009801023652288306  0.823804067673378  1.0000
  H   H11       1.0  0.7069402726247997  0.9345634957200671  0.9759882952545383  1.0000
  H   H12       1.0  0.29305972652764445  0.06543650397491488  0.024011704489885738  1.0000
  C   C1        1.0  0.3775947681830056  0.575720468452517  0.3249354435465263  1.0000
  C   C2        1.0  0.6224052312522179  0.4242795327206582  0.6750645571536781  1.0000
  C   C3        1.0  0.32861167010226994  0.6474858443290078  0.44666862257785134  1.0000
  C   C4        1.0  0.6713883292418021  0.35251415566500627  0.5533313781175893  1.0000
  C   C5        1.0  0.46299824056369804  0.7662128983620682  0.5352803870485685  1.0000
  C   C6        1.0  0.5370017588715253  0.23378710281110687  0.46471961365163583  1.0000
  C   C7        1.0  0.6570268799342314  0.8122203173727037  0.49988651941356876  1.0000
  C   C8        1.0  0.34297311940984065  0.1877796826213103  0.5001134812818717  1.0000
  C   C9        1.0  0.7133689578318753  0.7427553888835972  0.3795436904320502  1.0000
  C   C10       1.0  0.286631043081545  0.25724461111034236  0.6204563102599354  1.0000
  C   C11       1.0  0.5723515524781083  0.6267656303697008  0.29323560517541414  1.0000
  C   C12       1.0  0.427648448435312  0.3732343696242388  0.7067643955165716  1.0000
  C   C13       1.0  0.7267739456200109  0.2357588118350693  0.9734015089068242  1.0000
  C   C14       1.0  0.27322605353243334  0.7642411878599128  0.026598490837599957  1.0000
  C   C15       1.0  0.972150134439765  0.9136381278255725  0.09053566030054275  1.0000
  C   C16       1.0  0.027849864803830646  0.08636187304857075  0.9094643394486452  1.0000
  N   N1        1.0  0.8966443154357667  0.14412298517026287  0.012682827118449282  1.0000
  N   N2        1.0  0.1033556839083055  0.8558770148237511  0.9873171735769912  1.0000
  N   N3        1.0  0.8059485545052071  0.007589186869777747  0.05192146942350754  1.0000
  N   N4        1.0  0.1940514449300164  0.9924108143033975  0.9480785312766968  1.0000
  F   F1        1.0  0.14204571512796887  0.5994478573295461  0.4812033211089309  1.0000
  F   F2        1.0  0.8579542856849749  0.4005521435445227  0.5187966786368022  1.0000
  F   F3        1.0  0.7936957443960297  0.9273613483186989  0.5808624526777005  1.0000
  F   F4        1.0  0.20630425641691408  0.07263865255536987  0.4191375470680326  1.0000
  F   F5        1.0  0.9008500172211507  0.7890142043672085  0.3454982340932087  1.0000
  F   F6        1.0  0.0991499819312937  0.21098579532777367  0.6545017656512157  1.0000
  F   F7        1.0  0.6293180918493517  0.5660290863315419  0.1755514142294395  1.0000
  F   F8        1.0  0.3706819089635921  0.4339709145425268  0.8244485855162936  1.0000
  I   I1        1.0  0.16690649091946957  0.39255782557549734  0.1976115127090819  1.0000
  I   I2        1.0  0.833093509802323  0.6074421741194103  0.8023884870318874  1.0000
  I   I3        1.0  0.36664256817886653  0.8701721374324836  0.7145661576286485  1.0000
  I   I4        1.0  0.633357431256357  0.12982786374069155  0.2854338430715558  1.0000
