data_image0
_chemical_formula_structural       H48C40N4F16I12
_chemical_formula_sum              "H48 C40 N4 F16 I12"
_cell_length_a       7.556117511942636
_cell_length_b       22.642614790145192
_cell_length_c       9.250518179162619
_cell_angle_alpha    90.0
_cell_angle_beta     96.57143625532518
_cell_angle_gamma    90.0

_space_group_name_H-M_alt    "P 1"
_space_group_IT_number       1

loop_
  _space_group_symop_operation_xyz
  'x, y, z'

loop_
  _atom_site_type_symbol
  _atom_site_label
  _atom_site_symmetry_multiplicity
  _atom_site_fract_x
  _atom_site_fract_y
  _atom_site_fract_z
  _atom_site_occupancy
  H   H1        1.0  0.29459501476598005  0.6807771806774245  0.4655129865339776  1.0000
  H   H2        1.0  0.2054049843160634  0.1807771804598082  0.03448701326819371  1.0000
  H   H3        1.0  0.7054049847214332  0.31922281931616303  0.5344870130696205  1.0000
  H   H4        1.0  0.7945950153247129  0.8192228195337794  0.965512987423574  1.0000
  H   H5        1.0  0.3336022247172714  0.6618229514959614  0.6550299736173445  1.0000
  H   H6        1.0  0.16639777573272835  0.161822951278345  0.8449700266434385  1.0000
  H   H7        1.0  0.6663977747701417  0.33817704849762625  0.34497002598625365  1.0000
  H   H8        1.0  0.8336022252313743  0.8381770487152426  0.15502997404758473  1.0000
  H   H9        1.0  0.4185605423023348  0.7304311769327215  0.591591915006333  1.0000
  H   H10       1.0  0.081439458147665  0.23043117671510513  0.9084080852544499  1.0000
  H   H11       1.0  0.5814394585084048  0.2695688230608661  0.40840808459652056  1.0000
  H   H12       1.0  0.9185605414931113  0.7695688232784825  0.09159191543731779  1.0000
  H   H13       1.0  0.09916531163858364  0.7615353783037807  0.3869357437681881  1.0000
  H   H14       1.0  0.40083468892014923  0.26153537852780945  0.11306425712140822  1.0000
  H   H15       1.0  0.9008346880021927  0.2384646216898069  0.6130642569235796  1.0000
  H   H16       1.0  0.5991653120439534  0.7384646214657781  0.8869357435696149  1.0000
  H   H17       1.0  0.2193532309010694  0.8100674683554241  0.5173466337026001  1.0000
  H   H18       1.0  0.28064676807224104  0.3100674685794529  0.9826533654707578  1.0000
  H   H19       1.0  0.7806467685863439  0.18993253163816348  0.4826533659009979  1.0000
  H   H20       1.0  0.7193532314151723  0.6899325314141348  0.017346634132840412  1.0000
  H   H21       1.0  0.9836395281460303  0.8008893265230396  0.5184519159000083  1.0000
  H   H22       1.0  0.5163604717467526  0.30088932630542325  0.9815480835050164  1.0000
  H   H23       1.0  0.016360471341382844  0.19911067347054798  0.48154808370358976  1.0000
  H   H24       1.0  0.48363952774066055  0.6991106736881644  0.018451916098581506  1.0000
  H   H25       1.0  0.983802568270064  0.6683263280434478  0.4663688471941743  1.0000
  H   H26       1.0  0.516197431731452  0.16832632826747657  0.03363115283966405  1.0000
  H   H27       1.0  0.016197432694038612  0.3316736719501398  0.5336311534968488  1.0000
  H   H28       1.0  0.4838025677559612  0.8316736717261111  0.966368846763934  1.0000
  H   H29       1.0  0.8659024829851133  0.7076704293434323  0.5960882678020307  1.0000
  H   H30       1.0  0.6340975170610327  0.20767042956746107  0.9039117326911635  1.0000
  H   H31       1.0  0.134097516655663  0.2923295706501553  0.4039117328897369  1.0000
  H   H32       1.0  0.3659024824263804  0.7923295704261265  0.09608826691243438  1.0000
  H   H33       1.0  0.01613659701899151  0.6482930887641476  0.6545221231595072  1.0000
  H   H34       1.0  0.4838634034310083  0.14829308854653128  0.8454778771012758  1.0000
  H   H35       1.0  0.9838634024684216  0.35170691122944  0.34547787644409095  1.0000
  H   H36       1.0  0.5161365975330944  0.8517069114470562  0.15452212358974743  1.0000
  H   H37       1.0  0.2632498724853895  0.7833672676231692  0.7684604977347996  1.0000
  H   H38       1.0  0.23675012796461026  0.2833672674055529  0.7315395025259832  1.0000
  H   H39       1.0  0.7367501271553868  0.21663273237041838  0.231539502956968  1.0000
  H   H40       1.0  0.7632498728461292  0.7166327325880346  0.26846049707687036  1.0000
  H   H41       1.0  0.17859300086300106  0.714378553003519  0.8306224970372242  1.0000
  H   H42       1.0  0.3214069995869987  0.2143785532275477  0.6693775032235585  1.0000
  H   H43       1.0  0.8214069999477386  0.28562144699006864  0.16937750256562925  1.0000
  H   H44       1.0  0.6785930000537775  0.7856214467660398  0.3306224974682091  1.0000
  H   H45       1.0  0.0279920852903939  0.7733653388663118  0.7704157829628354  1.0000
  H   H46       1.0  0.47200791368291645  0.2733653390903405  0.7295842162105223  1.0000
  H   H47       1.0  0.9720079141970193  0.22663466112727584  0.22958421664076262  1.0000
  H   H48       1.0  0.5279920858044967  0.7266346609032471  0.2704157833930757  1.0000
  C   C1        1.0  0.5343935483338997  0.47240438434943716  0.2194392258337729  1.0000
  C   C2        1.0  0.9656064516676164  0.9724043841254084  0.2805607742000655  1.0000
  C   C3        1.0  0.4656064513068765  0.5275956156441505  0.7805607748579948  1.0000
  C   C4        1.0  0.034393549143123266  0.027595615868179213  0.719439225402788  1.0000
  C   C5        1.0  0.5830991521412238  0.5294969967522518  0.2680379105797564  1.0000
  C   C6        1.0  0.9169008478602924  0.029496996976280637  0.23196208945408195  1.0000
  C   C7        1.0  0.41690084866951577  0.47050300324133576  0.7319620890230971  1.0000
  C   C8        1.0  0.0830991516271209  0.970503003017307  0.7680379101495162  1.0000
  C   C9        1.0  0.47347505971618886  0.5597394089624368  0.35427381579842804  1.0000
  C   C10       1.0  0.02652494068918089  0.059739409186465524  0.14572618400299875  1.0000
  C   C11       1.0  0.5265249412479137  0.44026059103115084  0.645726184892595  1.0000
  C   C12       1.0  0.9734750587982324  0.9402605908071221  0.8542738156005993  1.0000
  C   C13       1.0  0.3151168294999302  0.5353206496837759  0.3908055258112252  1.0000
  C   C14       1.0  0.18488317105880267  0.03532064990780474  0.10919447507837123  1.0000
  C   C15       1.0  0.6848831701408461  0.46467935030981167  0.6091944748805425  1.0000
  C   C16       1.0  0.8151168299053  0.964679350085783  0.8908055256126519  1.0000
  C   C17       1.0  0.26588686930455746  0.4788696217505395  0.3413726886667594  1.0000
  C   C18       1.0  0.23411312977748594  0.9788696219681559  0.1586273111354119  1.0000
  C   C19       1.0  0.7341131301828558  0.5211303782430481  0.6586273109368387  1.0000
  C   C20       1.0  0.7658868698632904  0.021130378025431752  0.8413726895563558  1.0000
  C   C21       1.0  0.3767497752470017  0.44789943979499935  0.25747447522740724  1.0000
  C   C22       1.0  0.1232502251583681  0.9478994400126157  0.24252552457401955  1.0000
  C   C23       1.0  0.6232502242404115  0.5521005601985882  0.7425255243761909  1.0000
  C   C24       1.0  0.8767497756523714  0.05210055998097185  0.757474475028834  1.0000
  C   C25       1.0  0.3099940315791635  0.698041820986111  0.5767399754706986  1.0000
  C   C26       1.0  0.19000596739414688  0.19804182121013975  0.9232600237026591  1.0000
  C   C27       1.0  0.6900059679082498  0.3019581790074766  0.42326002413289954  1.0000
  C   C28       1.0  0.8099940320932664  0.8019581787834478  0.0767399759009388  1.0000
  C   C29       1.0  0.10781814675838233  0.7790673468365304  0.4980514397427358  1.0000
  C   C30       1.0  0.39218185364698743  0.27906734661891414  0.0019485600586910026  1.0000
  C   C31       1.0  0.8921818527290308  0.22093265315705712  0.5019485598608623  1.0000
  C   C32       1.0  0.607818147163752  0.7209326533746735  0.9980514395441625  1.0000
  C   C33       1.0  0.989713993175396  0.6850228912939317  0.5780842769529917  1.0000
  C   C34       1.0  0.5102860067173869  0.1850228910763153  0.9219157224520329  1.0000
  C   C35       1.0  0.010286006312017119  0.31497710869965595  0.42191572265060634  1.0000
  C   C36       1.0  0.4897139927700263  0.8149771089172724  0.07808427715156495  1.0000
  C   C37       1.0  0.15367921641710403  0.7514438666953489  0.7547963417706569  1.0000
  C   C38       1.0  0.3463207838795327  0.25144386691937765  0.7452036574019563  1.0000
  C   C39       1.0  0.8463207830703091  0.24855613329823872  0.24520365783294107  1.0000
  C   C40       1.0  0.6536792169312069  0.74855613307421  0.25479634220089725  1.0000
  N   N1        1.0  0.140173709014386  0.7283877680584011  0.6021764604815301  1.0000
  N   N2        1.0  0.3598262901122874  0.22838776784078477  0.8978235397799973  1.0000
  N   N3        1.0  0.8598262906263904  0.27161223193518647  0.3978235402102377  1.0000
  N   N4        1.0  0.6401737093751257  0.7716122321528028  0.10217645982360067  1.0000
  F   F1        1.0  0.5196899906280356  0.6141678542379525  0.4083857579707009  1.0000
  F   F2        1.0  0.9803100093734805  0.11416785446198123  0.09161424206313742  1.0000
  F   F3        1.0  0.4803100090127407  0.3858321457556351  0.5916142427210668  1.0000
  F   F4        1.0  0.019689990113932687  0.8858321455316065  0.9083857575404607  1.0000
  F   F5        1.0  0.21217895643226606  0.5649300992201342  0.47613859356137045  1.0000
  F   F6        1.0  0.28782104397310376  0.06493009944416285  0.023861406240056313  1.0000
  F   F7        1.0  0.7878210445318365  0.4350699007734535  0.5238614071296527  1.0000
  F   F8        1.0  0.7121789555143094  0.9350699005494247  0.9761385933635417  1.0000
  F   F9        1.0  0.11509562641892904  0.45411506159064347  0.37829456553873975  1.0000
  F   F10       1.0  0.38490437398644073  0.9541150618082599  0.121705434262687  1.0000
  F   F11       1.0  0.8849043730684841  0.545884938402944  0.6217054340648583  1.0000
  F   F12       1.0  0.6150956268242989  0.045884938185327746  0.8782945653401665  1.0000
  F   F13       1.0  0.32531892166196774  0.39228640827586336  0.2156344297497297  1.0000
  F   F14       1.0  0.17468107742007566  0.8922864084934796  0.28436557005244156  1.0000
  F   F15       1.0  0.6746810778254455  0.6077135917177242  0.7843655698538684  1.0000
  F   F16       1.0  0.8253189222207006  0.10771359150010787  0.7156344306393261  1.0000
  I   I1        1.0  0.6848619400797271  0.421127434634896  0.08541226576783978  1.0000
  I   I2        1.0  0.8151380599217891  0.9211274344108673  0.4145877342659986  1.0000
  I   I3        1.0  0.3151380594076862  0.5788725653586916  0.9145877338357583  1.0000
  I   I4        1.0  0.18486194104231352  0.07887256558272032  0.5854122664250245  1.0000
  I   I5        1.0  0.8117571166321913  0.5748580431472567  0.21374312367440731  1.0000
  I   I6        1.0  0.6882428833693249  0.07485804292964042  0.28625687635943103  1.0000
  I   I7        1.0  0.188242882855222  0.4251419568463308  0.7862568759291907  1.0000
  I   I8        1.0  0.3117571161180883  0.9251419570639472  0.713743123244167  1.0000
  I   I9        1.0  0.8555654269822487  0.32774692052041104  0.8500633540188298  1.0000
  I   I10       1.0  0.6444345730638974  0.8277469207380275  0.6499366464743648  1.0000
  I   I11       1.0  0.14443457265852766  0.6722530794731766  0.14993664667293793  1.0000
  I   I12       1.0  0.3555654277468421  0.17225307925556022  0.3500633531284888  1.0000
