data_image0
_chemical_formula_structural       H20C36N4O8Cl4
_chemical_formula_sum              "H20 C36 N4 O8 Cl4"
_cell_length_a       12.185811402962253
_cell_length_b       3.7478951289380564
_cell_length_c       16.984243281380813
_cell_angle_alpha    90.0
_cell_angle_beta     107.67962637341616
_cell_angle_gamma    90.0

_space_group_name_H-M_alt    "P 1"
_space_group_IT_number       1

loop_
  _space_group_symop_operation_xyz
  'x, y, z'

loop_
  _atom_site_type_symbol
  _atom_site_label
  _atom_site_symmetry_multiplicity
  _atom_site_fract_x
  _atom_site_fract_y
  _atom_site_fract_z
  _atom_site_occupancy
  H   H1        1.0  0.7768225595177705  0.18323079125070948  0.5169437155698845  1.0000
  H   H2        1.0  0.7231774403145382  0.6832307900582993  0.9830562846111769  1.0000
  H   H3        1.0  0.22317744081781818  0.8167692090326344  0.4830562849630441  1.0000
  H   H4        1.0  0.2768225597604432  0.3167692075568803  0.01694371530378411  1.0000
  H   H5        1.0  0.9931380454792311  0.7366176066890767  0.7698811951444021  1.0000
  H   H6        1.0  0.5068619540924705  0.23661760788148692  0.7301188044186918  1.0000
  H   H7        1.0  0.006861954595750318  0.2633823909261029  0.2301188047705589  1.0000
  H   H8        1.0  0.49313804598251104  0.7633823924018569  0.26988119549626927  1.0000
  H   H9        1.0  0.8570024134603758  0.44599089688873367  0.6473545883104744  1.0000
  H   H10       1.0  0.6429975871928671  0.9459908983644877  0.8526454118713149  1.0000
  H   H11       1.0  0.14299758661460574  0.5540091033946102  0.3526454116044867  1.0000
  H   H12       1.0  0.3570024128821144  0.05400910191885615  0.14735458804364615  1.0000
  H   H13       1.0  0.7662653626694278  0.06792182845098153  0.3666146614698777  1.0000
  H   H14       1.0  0.7337346376891699  0.5679218272585713  0.13338533882139705  1.0000
  H   H15       1.0  0.23373463766616073  0.9320781718323623  0.6333853390630508  1.0000
  H   H16       1.0  0.2662653623858116  0.4320781730247726  0.866614661093564  1.0000
  H   H17       1.0  0.8224516718412379  0.015612120400118877  0.23720754358410207  1.0000
  H   H18       1.0  0.6775483274358185  0.5156121192077087  0.2627924560884774  1.0000
  H   H19       1.0  0.17754832823374342  0.9843878798832251  0.7627924563308589  1.0000
  H   H20       1.0  0.32245167181822887  0.48438787840747094  0.7372075438257559  1.0000
  C   C1        1.0  0.44319066414037805  0.8282341402865073  0.5539654965081513  1.0000
  C   C2        1.0  0.05680933591159435  0.32823414147891755  0.9460345036484638  1.0000
  C   C3        1.0  0.5568093361952107  0.17176585999683658  0.4460345040247774  1.0000
  C   C4        1.0  0.9431906633424532  0.6717658588044263  0.05396549626576958  1.0000
  C   C5        1.0  0.5671835830110796  0.8599512177154273  0.5791990962975688  1.0000
  C   C6        1.0  0.9328164176421632  0.3599512189078374  0.9208009038842203  1.0000
  C   C7        1.0  0.43281641706390184  0.1400487825679167  0.42080090361739214  1.0000
  C   C8        1.0  0.06718358243281827  0.6400487813755066  0.07919909603074075  1.0000
  C   C9        1.0  0.6233253731859242  0.019387607577106496  0.5294089185774665  1.0000
  C   C10       1.0  0.8766746266463847  0.5193876063846963  0.9705910816035949  1.0000
  C   C11       1.0  0.3766746271496646  0.9806123927062375  0.47059108195546195  1.0000
  C   C12       1.0  0.12332537342859676  0.4806123912304833  0.02940891831136615  1.0000
  C   C13       1.0  0.967162560352863  0.5225705769827504  0.569995120492559  1.0000
  C   C14       1.0  0.5328374394794457  0.02257057550699629  0.9300048796885024  1.0000
  C   C15       1.0  0.03283743972211846  0.4774294233005935  0.43000487942240206  1.0000
  C   C16       1.0  0.4671625608561429  0.9774294247763476  0.06999512084442606  1.0000
  C   C17       1.0  0.9234181520626971  0.3386360173742674  0.4336416220084784  1.0000
  C   C18       1.0  0.5765818480352936  0.8386360161818572  0.0663583776648288  1.0000
  C   C19       1.0  0.07658184801228443  0.6613639829090765  0.5663583779064827  1.0000
  C   C20       1.0  0.4234181520396879  0.16136398410148667  0.9336416222501321  1.0000
  C   C21       1.0  0.8481487484258181  0.16994362117610012  0.3626310524127448  1.0000
  C   C22       1.0  0.6518512511118457  0.6699436226518543  0.13736894787780213  1.0000
  C   C23       1.0  0.15185125082822934  0.8300563791072437  0.6373689475014885  1.0000
  C   C24       1.0  0.34814874922374306  0.33005637763148965  0.8626310526551265  1.0000
  C   C25       1.0  0.9389148447690707  0.5521212037185046  0.6450097579406039  1.0000
  C   C26       1.0  0.5610851548026308  0.052121202242750526  0.85499024162249  1.0000
  C   C27       1.0  0.061085155305910716  0.44787879656483925  0.35499024197435713  1.0000
  C   C28       1.0  0.43891484527235053  0.9478787980405934  0.14500975829247095  1.0000
  C   C29       1.0  0.8793399601642372  0.14557421198564632  0.29166224054978074  1.0000
  C   C30       1.0  0.6206600401943604  0.6455742134614004  0.20833775974149396  1.0000
  C   C31       1.0  0.12066003991074405  0.8544257856295333  0.7083377593651802  1.0000
  C   C32       1.0  0.3793399601412283  0.3544257868219435  0.7916622407914347  1.0000
  C   C33       1.0  0.01434365488609953  0.7129420749713197  0.7123817007747347  1.0000
  C   C34       1.0  0.4856563451658728  0.2129420761637299  0.7876182993818801  1.0000
  C   C35       1.0  0.9856563451888819  0.28705792531202423  0.2876182991402263  1.0000
  C   C36       1.0  0.5143436540881746  0.787057924119614  0.21238170053235317  1.0000
  N   N1        1.0  0.8931025240149321  0.3647144124833893  0.5034059580310047  1.0000
  N   N2        1.0  0.6068974758173766  0.8647144139591434  0.9965940421500568  1.0000
  N   N3        1.0  0.10689747523911533  0.6352855877999546  0.49659404188322864  1.0000
  N   N4        1.0  0.3931025242576048  0.13528558632420049  0.0034059577649042396  1.0000
  O   O1        1.0  0.38814095801880055  0.6826391059466288  0.5956677143413341  1.0000
  O   O2        1.0  0.11185904177256453  0.18263910447087464  0.9043322851973131  1.0000
  O   O3        1.0  0.6118590420561809  0.3173608943367151  0.4043322855736269  1.0000
  O   O4        1.0  0.8881409583024169  0.8173608958124693  0.09566771471764784  1.0000
  O   O5        1.0  0.7357588264470796  0.041897853221013984  0.5531322177357787  1.0000
  O   O6        1.0  0.7642411733852292  0.5418978520286039  0.9468677824452827  1.0000
  O   O7        1.0  0.26424117362790195  0.95810214706233  0.4468677821791823  1.0000
  O   O8        1.0  0.23575882668975212  0.4581021482547401  0.05313221746967834  1.0000
  Cl  Cl1       1.0  0.6443181620210009  0.6947289052716271  0.6742329719972866  1.0000
  Cl  Cl2       1.0  0.8556818386322417  0.19472890646403732  0.8257670281845025  1.0000
  Cl  Cl3       1.0  0.35568183805398057  0.3052710950117168  0.3257670279176745  1.0000
  Cl  Cl4       1.0  0.14431816170334683  0.8052710938193065  0.17423297234842597  1.0000
