data_image0
_chemical_formula_structural       H134B22C116N4P2Br12
_chemical_formula_sum              "H134 B22 C116 N4 P2 Br12"
_cell_length_a       11.833921135788133
_cell_length_b       14.759164981754147
_cell_length_c       18.29141943404957
_cell_angle_alpha    87.60767217350181
_cell_angle_beta     74.72063270804685
_cell_angle_gamma    87.01178865035715

_space_group_name_H-M_alt    "P 1"
_space_group_IT_number       1

loop_
  _space_group_symop_operation_xyz
  'x, y, z'

loop_
  _atom_site_type_symbol
  _atom_site_label
  _atom_site_symmetry_multiplicity
  _atom_site_fract_x
  _atom_site_fract_y
  _atom_site_fract_z
  _atom_site_occupancy
  H   H1        1.0  0.08798717147675877  0.2436499158531739  0.19405858165531506  1.0000
  H   H2        1.0  0.9120128284242403  0.7563500843677773  0.8059414187045987  1.0000
  H   H3        1.0  0.10930565562062719  0.1923404135703402  0.30619598059301817  1.0000
  H   H4        1.0  0.8906943442803715  0.8076595866506111  0.6938040197668957  1.0000
  H   H5        1.0  0.48308807041078866  0.36633635012501486  0.003907798192981274  1.0000
  H   H6        1.0  0.5169119295300587  0.6336636494174888  0.9960922021666242  1.0000
  H   H7        1.0  0.3774335862144772  0.3541346923876893  0.9042025417517461  1.0000
  H   H8        1.0  0.6225664139157462  0.6458653078533638  0.09579745804119101  1.0000
  H   H9        1.0  0.17545779918393603  0.29985390419950014  0.9378038704552935  1.0000
  H   H10       1.0  0.8245422001009285  0.7001460960450657  0.06219612933792221  1.0000
  H   H11       1.0  0.48819665723523303  0.18340417909524467  0.2826604465135162  1.0000
  H   H12       1.0  0.5118033426657659  0.8165958211257066  0.7173395538463976  1.0000
  H   H13       1.0  0.5341620815639653  0.47023368434475393  0.24767172461265397  1.0000
  H   H14       1.0  0.4658379185662581  0.5297663158962991  0.7523282751802831  1.0000
  H   H15       1.0  0.757587173870237  0.30032361618020054  0.17088674631615472  1.0000
  H   H16       1.0  0.24241282603076195  0.6996763840407507  0.829113254043759  1.0000
  H   H17       1.0  0.9249844020142811  0.04050018269092542  0.1033546789659923  1.0000
  H   H18       1.0  0.07501559811594218  0.9594998175501277  0.8966453208269447  1.0000
  H   H19       1.0  0.43705225542880627  0.1000746445005702  0.1872169998215631  1.0000
  H   H20       1.0  0.562947744512041  0.8999253550419334  0.8127830005380424  1.0000
  H   H21       1.0  0.39012165085099404  0.15508879775049975  0.1115035213567326  1.0000
  H   H22       1.0  0.6098783490500048  0.8449112024704514  0.8884964790031812  1.0000
  H   H23       1.0  0.29118087144877774  0.14326881200977357  0.20218802915340445  1.0000
  H   H24       1.0  0.7088191286814457  0.8567311882312795  0.7978119706395327  1.0000
  H   H25       1.0  0.6577355947974055  0.2718916738538234  0.3194608353281505  1.0000
  H   H26       1.0  0.34226440448745904  0.7281083263907424  0.6805391644650651  1.0000
  H   H27       1.0  0.529280128691301  0.30555060991317345  0.3881338831764475  1.0000
  H   H28       1.0  0.4707198712096979  0.6944493903077777  0.6118661171834664  1.0000
  H   H29       1.0  0.6222270132341206  0.38934310174573583  0.3358958137951401  1.0000
  H   H30       1.0  0.37777298689610267  0.6106568984953171  0.6641041859977971  1.0000
  H   H31       1.0  0.43318409355792337  0.5568470657442579  0.17165665887120068  1.0000
  H   H32       1.0  0.5668159065723  0.44315293449679516  0.8283433409217364  1.0000
  H   H33       1.0  0.3283246377767732  0.5062645875046096  0.133548463254917  1.0000
  H   H34       1.0  0.6716753623534502  0.49373541273644356  0.8664515365380201  1.0000
  H   H35       1.0  0.47564837203271954  0.5074654330775901  0.08119879298960259  1.0000
  H   H36       1.0  0.5243516279081278  0.49253456646491345  0.9188012073700029  1.0000
  H   H37       1.0  0.005069937443798272  0.4187964305876202  0.15952583336787907  1.0000
  H   H38       1.0  0.9949300626864251  0.5812035696534329  0.8404741664250581  1.0000
  H   H39       1.0  0.8608440649194661  0.433159579835942  0.1477631691776114  1.0000
  H   H40       1.0  0.13915593498153275  0.5668404203850093  0.8522368311823024  1.0000
  H   H41       1.0  0.9843073874489919  0.43484083377229654  0.06760224961259938  1.0000
  H   H42       1.0  0.015692612681231406  0.5651591664687566  0.9323977501803379  1.0000
  H   H43       1.0  0.6821875045416236  0.12601635015037121  0.23218072602834938  1.0000
  H   H44       1.0  0.3178124955885999  0.8739836500906819  0.7678192737645877  1.0000
  H   H45       1.0  0.7198299995981122  0.0488982970105703  0.15775312997148544  1.0000
  H   H46       1.0  0.2801700005321111  0.9511017032304828  0.8422468698214517  1.0000
  H   H47       1.0  0.6449168517818308  0.15459884278090305  0.14692635717651817  1.0000
  H   H48       1.0  0.35508314811916797  0.8454011574400481  0.8530736431833956  1.0000
  H   H49       1.0  0.12391773903828146  0.024491206493648783  0.04229075601971469  1.0000
  H   H50       1.0  0.8760822608627175  0.9755087937273024  0.9577092443401992  1.0000
  H   H51       1.0  0.20626859821021404  0.0935278254778465  0.08455204100195664  1.0000
  H   H52       1.0  0.7937314008852746  0.9064721740681698  0.9154479593579272  1.0000
  H   H53       1.0  0.19778444968573072  0.11931251378781328  0.9918219804533277  1.0000
  H   H54       1.0  0.8022155502152681  0.8806874864331378  0.008178019906586164  1.0000
  H   H55       1.0  0.9482501461630582  0.10774560775916116  0.5498856437077408  1.0000
  H   H56       1.0  0.051749853967165166  0.892254392481892  0.45011435608519623  1.0000
  H   H57       1.0  0.9165289485494503  0.25024512629132933  0.6211125397774222  1.0000
  H   H58       1.0  0.08347105139139703  0.7497548732511743  0.37888746058218326  1.0000
  H   H59       1.0  0.973154896926968  0.39766138579768767  0.5535860629009676  1.0000
  H   H60       1.0  0.02684510324310395  0.6023386137649177  0.44641393689166126  1.0000
  H   H61       1.0  0.958046832879831  0.004118113355654252  0.2503279936673332  1.0000
  H   H62       1.0  0.04195316729024092  0.9958818862069511  0.7496720061252956  1.0000
  H   H63       1.0  0.26598698889079647  0.9311770076706283  0.32605423738886985  1.0000
  H   H64       1.0  0.7340130112394269  0.06882299257042483  0.6739457624040672  1.0000
  H   H65       1.0  0.2972440760823101  0.5661695736502249  0.33560836058408744  1.0000
  H   H66       1.0  0.7027559240877618  0.4338304259123806  0.6643916392085414  1.0000
  H   H67       1.0  0.9699403812820403  0.5638469137119204  0.2749796687252842  1.0000
  H   H68       1.0  0.030059618618958377  0.4361530865090308  0.7250203316346296  1.0000
  H   H69       1.0  0.7974218868440206  0.11337398571434058  0.4047615543195012  1.0000
  H   H70       1.0  0.20257811328620293  0.8866260145267124  0.595238445473436  1.0000
  H   H71       1.0  0.8272493856144837  0.1220818730086326  0.3042909663025047  1.0000
  H   H72       1.0  0.17275061451573964  0.8779181272324206  0.6957090334904324  1.0000
  H   H73       1.0  0.8741251372029631  0.20571103904758328  0.35590127974049784  1.0000
  H   H74       1.0  0.12587486296710892  0.7942889605150221  0.644098720052131  1.0000
  H   H75       1.0  0.08376002966378827  0.8587756676411793  0.20799011371161813  1.0000
  H   H76       1.0  0.9162399705062836  0.14122433192142606  0.7920098860810107  1.0000
  H   H77       1.0  0.22508712901254888  0.8472322139399129  0.22578344139281506  1.0000
  H   H78       1.0  0.7749128708884498  0.15276778628103838  0.7742165589670987  1.0000
  H   H79       1.0  0.19483213257987808  0.9333425255685929  0.16270309231554278  1.0000
  H   H80       1.0  0.8051678675901939  0.0666574739940126  0.8372969074770861  1.0000
  H   H81       1.0  0.2642577029216712  0.12122639976944259  0.4308792085767237  1.0000
  H   H82       1.0  0.7357422972085521  0.8787736004716105  0.5691207912162135  1.0000
  H   H83       1.0  0.30705139136271814  0.004010082431691555  0.4274347528515782  1.0000
  H   H84       1.0  0.6929486087675052  0.9959899178093615  0.5725652469413588  1.0000
  H   H85       1.0  0.18329645660325225  0.044081260723553874  0.4986583536046536  1.0000
  H   H86       1.0  0.8167035435668197  0.9559187388390514  0.5013416461879753  1.0000
  H   H87       1.0  0.23574916759619752  0.43283862575685816  0.493847749924505  1.0000
  H   H88       1.0  0.7642508325738744  0.5671613738057472  0.5061522498681239  1.0000
  H   H89       1.0  0.35259625091645297  0.44685036865371225  0.4111787594330195  1.0000
  H   H90       1.0  0.6474037492137704  0.5531496315873408  0.5888212403599176  1.0000
  H   H91       1.0  0.27297629459869716  0.3459770049998789  0.4277386496120089  1.0000
  H   H92       1.0  0.7270237053023018  0.6540229952210722  0.572261350747905  1.0000
  H   H93       1.0  0.2117523603251774  0.6316835970895437  0.18665654919656913  1.0000
  H   H94       1.0  0.7882476396156699  0.3683164024529599  0.8133434511630364  1.0000
  H   H95       1.0  0.2384450483314686  0.6922411213841435  0.26163806549444873  1.0000
  H   H96       1.0  0.7615549515695302  0.30775887883680775  0.7383619348654651  1.0000
  H   H97       1.0  0.09688983334339889  0.6978884013312475  0.24372427462860272  1.0000
  H   H98       1.0  0.9031101668266729  0.30211159823135786  0.7562757251640262  1.0000
  H   H99       1.0  0.8872526077793375  0.35480032829555896  0.3378297335857845  1.0000
  H   H100      1.0  0.11274739235088597  0.6451996719454942  0.6621702662071526  1.0000
  H   H101      1.0  0.8218685412459935  0.4655033908477058  0.33724079325249123  1.0000
  H   H102      1.0  0.1781314586948539  0.5344966086947979  0.6627592071071142  1.0000
  H   H103      1.0  0.8290308920471327  0.40926829222633876  0.4243236811691809  1.0000
  H   H104      1.0  0.1709691078937147  0.5907317073161648  0.5756763191904246  1.0000
  H   H105      1.0  0.9179645453536949  0.7686869093164981  0.293299200826666  1.0000
  H   H106      1.0  0.08203545458715263  0.23131309022600546  0.7067007995329395  1.0000
  H   H107      1.0  0.79897110223572  0.6293667470261093  0.40088655939127443  1.0000
  H   H108      1.0  0.20102889789450354  0.3706332532149438  0.5991134404016627  1.0000
  H   H109      1.0  0.59624621527893  0.7197734770062031  0.5107726342987147  1.0000
  H   H110      1.0  0.40375378462206896  0.28022652321474817  0.4892273660611992  1.0000
  H   H111      1.0  0.5921047491727299  0.9159808192980208  0.4681288373392796  1.0000
  H   H112      1.0  0.4078952509973418  0.08401918026458463  0.5318711624533492  1.0000
  H   H113      1.0  0.7903351911599106  0.9459070951713153  0.33398187949876085  1.0000
  H   H114      1.0  0.20966480878093674  0.05409290437118809  0.6660181208608447  1.0000
  H   H115      1.0  0.8043951922596235  0.809375846753131  0.443522389602428  1.0000
  H   H116      1.0  0.19560480787059986  0.19062415348792214  0.556477610190509  1.0000
  H   H117      1.0  0.18706658389493439  0.8346002307665559  0.04797026463464988  1.0000
  H   H118      1.0  0.8129334160060643  0.16539976945439547  0.9520297357252638  1.0000
  H   H119      1.0  0.36463129217340307  0.746885652888581  0.9766919494841475  1.0000
  H   H120      1.0  0.6353687079966689  0.2531143466740244  0.02330805030848129  1.0000
  H   H121      1.0  0.3577026307633957  0.5795919920087133  0.96542825368049  1.0000
  H   H122      1.0  0.6422973693668277  0.42040800823233987  0.03457174611244706  1.0000
  H   H123      1.0  0.17674237745414909  0.5000251446490614  0.028011447123969888  1.0000
  H   H124      1.0  0.8232576224468496  0.4999748555718898  0.9719885532359438  1.0000
  H   H125      1.0  0.9987644416146153  0.588656700157222  0.09942546630822345  1.0000
  H   H126      1.0  0.001235558515608042  0.4113433000838309  0.9005745334847137  1.0000
  H   H127      1.0  0.003848209295872144  0.7552787877495895  0.10825610733346093  1.0000
  H   H128      1.0  0.9961517908343511  0.24472121249146359  0.8917438924594762  1.0000
  H   H129      1.0  0.5822940372569272  0.932594848494256  0.10308729901323496  1.0000
  H   H130      1.0  0.4177059628732962  0.06740515174679719  0.8969127007797022  1.0000
  H   H131      1.0  0.40728866981086426  0.8679809145347258  0.07808744396823863  1.0000
  H   H132      1.0  0.5927113303193592  0.13201908570632725  0.9219125558246986  1.0000
  H   H133      1.0  0.6753318002533604  0.06444449302214755  0.025299068305411707  1.0000
  H   H134      1.0  0.324668199687487  0.935555506520356  0.9747009320541938  1.0000
  B   B1        1.0  0.814145284853293  0.7726400171045977  0.3158015820808316  1.0000
  B   B2        1.0  0.1858547152769305  0.2273599831364553  0.6841984177121055  1.0000
  B   B3        1.0  0.7420638999904905  0.6893313991410422  0.3810958940005208  1.0000
  B   B4        1.0  0.2579360999105085  0.310668601079909  0.618904106359393  1.0000
  B   B5        1.0  0.621997351790213  0.743514534483805  0.4460021513189106  1.0000
  B   B6        1.0  0.3780026483400105  0.25648546575724807  0.5539978484740266  1.0000
  B   B7        1.0  0.6191665263198795  0.8604842301350696  0.420749321002775  1.0000
  B   B8        1.0  0.3808334738501924  0.1395157694275358  0.5792506787898537  1.0000
  B   B9        1.0  0.7380978677980493  0.878440547904172  0.340256379050363  1.0000
  B   B10       1.0  0.2619021323720223  0.12155945165843325  0.6597436207422659  1.0000
  B   B11       1.0  0.7171592318241825  0.699644567269472  0.2899914195325137  1.0000
  B   B12       1.0  0.2828407683060407  0.3003554329715811  0.7100085802604235  1.0000
  B   B13       1.0  0.59827214561645  0.681515459882607  0.37133883188903904  1.0000
  B   B14       1.0  0.40172785451377324  0.3184845403584462  0.6286611679038979  1.0000
  B   B15       1.0  0.5215061945456907  0.7878761073928424  0.39560370719335036  1.0000
  B   B16       1.0  0.4784938055845326  0.21212389284821057  0.6043962925995867  1.0000
  B   B17       1.0  0.5947150845994886  0.8719480351886798  0.3292676301851866  1.0000
  B   B18       1.0  0.4052849155705831  0.12805196437392555  0.6707323696074422  1.0000
  B   B19       1.0  0.7163286569932724  0.8174477478735306  0.2642905518657072  1.0000
  B   B20       1.0  0.2836713431369509  0.18255225236752254  0.7357094479272299  1.0000
  B   B21       1.0  0.5806390549901118  0.7611304155688519  0.2978037596390339  1.0000
  B   B22       1.0  0.4193609451401117  0.23886958467220126  0.7021962401539033  1.0000
  C   C1        1.0  0.21941498290498904  0.30302860092912476  0.11390852075064353  1.0000
  C   C2        1.0  0.7805850169960097  0.6969713992918263  0.8860914796092703  1.0000
  C   C3        1.0  0.33680211335637816  0.3289606919028568  0.09607230523541342  1.0000
  C   C4        1.0  0.6631978867738452  0.6710393083381961  0.9039276945575238  1.0000
  C   C5        1.0  0.3918332855290513  0.3476403419546619  0.01964385465417534  1.0000
  C   C6        1.0  0.6081667143719475  0.6523596582662894  0.9803561457057386  1.0000
  C   C7        1.0  0.33313393221226606  0.3397251265735471  0.9634536809866316  1.0000
  C   C8        1.0  0.6668660679179572  0.6602748736675059  0.03654631880630547  1.0000
  C   C9        1.0  0.2189005078271099  0.3094232177591605  0.9822932010139892  1.0000
  C   C10       1.0  0.7810994921137374  0.690576781783343  0.01770679934561643  1.0000
  C   C11       1.0  0.16069749405191547  0.28962354238251564  0.05768968691307844  1.0000
  C   C12       1.0  0.839302505888932  0.7103764571599879  0.9423103134465269  1.0000
  C   C13       1.0  0.4005367190289457  0.3291542115342191  0.15634319597329768  1.0000
  C   C14       1.0  0.5994632811411261  0.6708457880283863  0.8436568038193312  1.0000
  C   C15       1.0  0.4194423878759594  0.24587550679445808  0.19434936666105765  1.0000
  C   C16       1.0  0.580557612254264  0.754124493446595  0.8056506331318793  1.0000
  C   C17       1.0  0.4750163462650359  0.24722707502144836  0.2529705127044493  1.0000
  C   C18       1.0  0.5249836538651874  0.7527729252196047  0.7470294870884878  1.0000
  C   C19       1.0  0.5189469597609331  0.32659300818199893  0.27214938975346925  1.0000
  C   C20       1.0  0.48105304036929014  0.6734069920590542  0.7278506100394678  1.0000
  C   C21       1.0  0.501695557457828  0.4074434854584947  0.2328290359410124  1.0000
  C   C22       1.0  0.4983044426723953  0.5925565147825584  0.7671709638519246  1.0000
  C   C23       1.0  0.4417689855967745  0.41045395605157825  0.17619583960026908  1.0000
  C   C24       1.0  0.5582310145732973  0.5895460435110271  0.8238041601923597  1.0000
  C   C25       1.0  0.04385897601228057  0.24849289025938512  0.08239596941914945  1.0000
  C   C26       1.0  0.9561410241577913  0.7515071093032203  0.9176040303734795  1.0000
  C   C27       1.0  0.9423559552896793  0.30157503565290666  0.11681911817252003  1.0000
  C   C28       1.0  0.05764404461131961  0.6984249645680445  0.8831808821873938  1.0000
  C   C29       1.0  0.8362885363809125  0.25907006466677823  0.14512069852475418  1.0000
  C   C30       1.0  0.16371146374931084  0.7409299355742749  0.854879301268183  1.0000
  C   C31       1.0  0.8281563761031518  0.16531349777709728  0.14006290863237852  1.0000
  C   C32       1.0  0.17184362402707137  0.8346865024639558  0.8599370911605586  1.0000
  C   C33       1.0  0.9297317710608961  0.1139416883527423  0.10655365519754054  1.0000
  C   C34       1.0  0.07026822906932723  0.8860583118883109  0.8934463445953965  1.0000
  C   C35       1.0  0.03809308040308072  0.15362482286578058  0.07821262984435903  1.0000
  C   C36       1.0  0.9619069197271425  0.8463751773752725  0.9217873699485781  1.0000
  C   C37       1.0  0.3829636707229827  0.15692913952505033  0.17249556331761043  1.0000
  C   C38       1.0  0.6170363294072407  0.8430708607160027  0.8275044364753267  1.0000
  C   C39       1.0  0.5855297895828336  0.32367642778879907  0.3318868613740708  1.0000
  C   C40       1.0  0.4144702103181653  0.6763235724321522  0.6681131389858431  1.0000
  C   C41       1.0  0.41861803700328  0.49982988434125386  0.13909866452144787  1.0000
  C   C42       1.0  0.5813819628977188  0.5001701158796973  0.860901335838466  1.0000
  C   C43       1.0  0.9482575767552224  0.4022371769942659  0.12337394619260958  1.0000
  C   C44       1.0  0.05174242337500104  0.5977628232467871  0.8766260536003275  1.0000
  C   C45       1.0  0.7133331448869278  0.12114997420964631  0.17027940008101  1.0000
  C   C46       1.0  0.28666685524329555  0.8788500260314068  0.8297205997119271  1.0000
  C   C47       1.0  0.1464461066669264  0.09472271453489475  0.04746731101954553  1.0000
  C   C48       1.0  0.8535538934632968  0.9052772857061582  0.9525326887733917  1.0000
  C   C49       1.0  0.06134801309725341  0.2568430569452037  0.40549023656523586  1.0000
  C   C50       1.0  0.9386519870728185  0.7431569426174017  0.5945097632273929  1.0000
  C   C51       1.0  0.0269711358518204  0.17257473176200608  0.44224544736715393  1.0000
  C   C52       1.0  0.9730288643182513  0.8274252678005994  0.5577545524254749  1.0000
  C   C53       1.0  0.975356598773756  0.1717345321421571  0.5202596239566206  1.0000
  C   C54       1.0  0.02464340135646745  0.8282654680988959  0.4797403758363164  1.0000
  C   C55       1.0  0.9572825257494041  0.2521785659632839  0.5603101736788073  1.0000
  C   C56       1.0  0.04271747419144347  0.7478214335792197  0.43968982668079815  1.0000
  C   C57       1.0  0.9892066210910357  0.33495516623108856  0.5226087257911504  1.0000
  C   C58       1.0  0.010793379039187615  0.6650448340099644  0.47739127400178677  1.0000
  C   C59       1.0  0.04085771376114378  0.3386716610931659  0.4446062516746434  1.0000
  C   C60       1.0  0.9591422861797035  0.6613283384493377  0.5553937486849622  1.0000
  C   C61       1.0  0.04964150244222122  0.09150836384196745  0.3936543654651386  1.0000
  C   C62       1.0  0.9503584976880022  0.9084916363990857  0.6063456343277984  1.0000
  C   C63       1.0  0.9768583273869532  0.0779577020585365  0.34507680602886803  1.0000
  C   C64       1.0  0.023141672783118676  0.922042297504069  0.6549231937637608  1.0000
  C   C65       1.0  0.012763022944357464  0.013162696898093353  0.28888119892321257  1.0000
  C   C66       1.0  0.9872369769566415  0.9868373033228578  0.7111188014367013  1.0000
  C   C67       1.0  0.11740410354345883  0.9608603112056574  0.2802240356633336  1.0000
  C   C68       1.0  0.8825958965867645  0.039139689035395664  0.7197759641296035  1.0000
  C   C69       1.0  0.18525991828855365  0.9724823357830079  0.33102971473637843  1.0000
  C   C70       1.0  0.814740081612445  0.027517664437943335  0.6689702856235354  1.0000
  C   C71       1.0  0.15372335575139182  0.0376947017957016  0.38722395729765247  1.0000
  C   C72       1.0  0.8462766435334729  0.9623052984488644  0.6127760424955632  1.0000
  C   C73       1.0  0.07130389462450647  0.4241801044180634  0.39939088105270715  1.0000
  C   C74       1.0  0.9286961055057169  0.5758198958229896  0.6006091187402299  1.0000
  C   C75       1.0  0.18139919511168798  0.46184343342297907  0.391049728702705  1.0000
  C   C76       1.0  0.8186008047893109  0.5381565667979721  0.6089502716572088  1.0000
  C   C77       1.0  0.21266284284517364  0.5364546017732281  0.34121529698743697  1.0000
  C   C78       1.0  0.7873371570956736  0.46354539776927545  0.6587847033721685  1.0000
  C   C79       1.0  0.13844510338904928  0.5733308549537809  0.298402381565066  1.0000
  C   C80       1.0  0.8615548967810225  0.4266691446088246  0.7015976182275628  1.0000
  C   C81       1.0  0.029597210245509206  0.5349476640348314  0.30713199763557814  1.0000
  C   C82       1.0  0.9704027896554899  0.46505233618611963  0.6928680027243357  1.0000
  C   C83       1.0  0.9938006475012497  0.4612434359338991  0.35734412893022044  1.0000
  C   C84       1.0  0.006199352668822164  0.5387565636287063  0.6426558708624084  1.0000
  C   C85       1.0  0.8634675956989889  0.13256244131061884  0.35249306231624433  1.0000
  C   C86       1.0  0.1365324044312345  0.8674375589304343  0.6475069374766927  1.0000
  C   C87       1.0  0.15711598703090127  0.8961029775259874  0.2162363404503816  1.0000
  C   C88       1.0  0.8428840130993221  0.10389702271506568  0.7837636593425555  1.0000
  C   C89       1.0  0.23128003728974691  0.052072308080018496  0.43861913553490167  1.0000
  C   C90       1.0  0.7687199628404763  0.9479276921610345  0.5613808642580355  1.0000
  C   C91       1.0  0.2652098758024564  0.42010528860790947  0.43288685600688087  1.0000
  C   C92       1.0  0.7347901243676155  0.579894710954696  0.567113143785748  1.0000
  C   C93       1.0  0.17328671857425293  0.653186312842901  0.24511461397096748  1.0000
  C   C94       1.0  0.8267132813665944  0.34681368669960266  0.7548853863886381  1.0000
  C   C95       1.0  0.8767838088760995  0.42128188394604066  0.36475843687123966  1.0000
  C   C96       1.0  0.12321619125412389  0.5787181162950124  0.6352415629216974  1.0000
  C   C97       1.0  0.7474880793683945  0.7975747057419307  0.40719845789785064  1.0000
  C   C98       1.0  0.2525119205326046  0.20242529447902055  0.5928015424620632  1.0000
  C   C99       1.0  0.1850332590684107  0.7612675336242449  0.04379472181221449  1.0000
  C   C100      1.0  0.8149667408325882  0.23873246659670636  0.9562052785476994  1.0000
  C   C101      1.0  0.28466053401037267  0.7119805166706064  0.003920454719414518  1.0000
  C   C102      1.0  0.7153394650452674  0.28801948355385754  0.9960795456407778  1.0000
  C   C103      1.0  0.2811193669815182  0.6181730222930101  0.9978951367509147  1.0000
  C   C104      1.0  0.7188806329194806  0.3818269779279411  0.0021048636089990905  1.0000
  C   C105      1.0  0.17864136424989566  0.5733732786872022  0.03257254821731568  1.0000
  C   C106      1.0  0.8213586356511031  0.4266267215337491  0.9674274521425982  1.0000
  C   C107      1.0  0.07915031607594847  0.6229025632434705  0.07224793591493803  1.0000
  C   C108      1.0  0.9208496840941234  0.37709743631913495  0.9277520638776908  1.0000
  C   C109      1.0  0.08203348921376764  0.7168720575072828  0.07754039326511822  1.0000
  C   C110      1.0  0.9179665109164558  0.28312794273377045  0.9224596065278188  1.0000
  C   C111      1.0  0.5463830626463415  0.9621695264100519  0.057919040986419555  1.0000
  C   C112      1.0  0.4536169375237304  0.037830473152553445  0.9420809588062093  1.0000
  C   C113      1.0  0.4477109436652579  0.9258551933545707  0.04380529996617375  1.0000
  C   C114      1.0  0.5522890562755896  0.07414480618793287  0.9561947003934319  1.0000
  C   C115      1.0  0.5984545985623535  0.0362309386071887  0.01404899807487999  1.0000
  C   C116      1.0  0.4015454013386453  0.9637690616137625  0.9859510022850339  1.0000
  N   N1        1.0  0.15741789320472546  0.2842947591811938  0.18958147219270163  1.0000
  N   N2        1.0  0.8425821066962735  0.7157052410397574  0.8104185281672122  1.0000
  N   N3        1.0  0.11243615077642864  0.25571314575953813  0.3268246444901837  1.0000
  N   N4        1.0  0.8875638493537947  0.7442868544815151  0.6731753553027533  1.0000
  P   P1        1.0  0.17526084785375964  0.3358006772634073  0.2647741286682165  1.0000
  P   P2        1.0  0.8247391520472394  0.6641993229575439  0.7352258716916973  1.0000
  Br  Br1       1.0  0.7709967097297531  0.6038384779709273  0.21592929153877652  1.0000
  Br  Br2       1.0  0.22900329017124565  0.396161522250024  0.7840707088211373  1.0000
  Br  Br3       1.0  0.5199730861210202  0.56661401616676  0.39400034438380077  1.0000
  Br  Br4       1.0  0.4800269140490516  0.43338598339584544  0.6059996554088282  1.0000
  Br  Br5       1.0  0.352272363816393  0.7948189974592117  0.4424595549663944  1.0000
  Br  Br6       1.0  0.647727636353679  0.20518100210339377  0.5575404448262343  1.0000
  Br  Br7       1.0  0.5101792447516724  0.9780844254673189  0.29853871618810984  1.0000
  Br  Br8       1.0  0.4898207553785509  0.02191557477373415  0.7014612836048273  1.0000
  Br  Br9       1.0  0.7788827727891162  0.8607142138647491  0.15922556368437282  1.0000
  Br  Br10      1.0  0.2211172271118827  0.13928578635620206  0.840774436675541  1.0000
  Br  Br11      1.0  0.4791889606586968  0.7409471734886389  0.23161218220809268  1.0000
  Br  Br12      1.0  0.5208110392423022  0.2590528267323123  0.768387818151821  1.0000
