data_image0
_chemical_formula_structural       H4C6N2I2
_chemical_formula_sum              "H4 C6 N2 I2"
_cell_length_a       4.193286896063418
_cell_length_b       7.292566775361767
_cell_length_c       7.745978880349723
_cell_angle_alpha    113.35316042477912
_cell_angle_beta     100.2718724467872
_cell_angle_gamma    93.15863353194192

_space_group_name_H-M_alt    "P 1"
_space_group_IT_number       1

loop_
  _space_group_symop_operation_xyz
  'x, y, z'

loop_
  _atom_site_type_symbol
  _atom_site_label
  _atom_site_symmetry_multiplicity
  _atom_site_fract_x
  _atom_site_fract_y
  _atom_site_fract_z
  _atom_site_occupancy
  H   H1        1.0  0.7056013116042065  0.7927954756023523  0.7204369048815716  1.0000
  H   H2        1.0  0.2943986888405313  0.20720452523789337  0.27956309487148007  1.0000
  H   H3        1.0  0.48077835067651997  0.6421674103995134  0.922609419489351  1.0000
  H   H4        1.0  0.5192216496312643  0.357832589066158  0.07739058026085047  1.0000
  C   C1        1.0  0.9601587766386116  0.44906937446245143  0.5416166239587642  1.0000
  C   C2        1.0  0.03984122128191278  0.5509306250024746  0.4583833757839676  1.0000
  C   C3        1.0  0.6140635518023181  0.8864125564972275  0.8456267579124599  1.0000
  C   C4        1.0  0.38593644864241977  0.11358744434301822  0.15437324184059184  1.0000
  C   C5        1.0  0.4886872954047949  0.8029460432358054  0.9577307948179324  1.0000
  C   C6        1.0  0.511312705039943  0.19705395760444025  0.0422692049351192  1.0000
  N   N1        1.0  0.6252361184694248  0.08398951185118884  0.8884491249720848  1.0000
  N   N2        1.0  0.3747638818383594  0.9160104876144826  0.11155087477811687  1.0000
  I   I1        1.0  0.8253363427478918  0.28487425485527623  0.680964255858421  1.0000
  I   I2        1.0  0.17466365769684605  0.7151257459849695  0.31903574389463063  1.0000
