data_image0
_chemical_formula_structural       H60C44N12O8S4
_chemical_formula_sum              "H60 C44 N12 O8 S4"
_cell_length_a       7.479397452975612
_cell_length_b       9.252172138528689
_cell_length_c       19.337886668113654
_cell_angle_alpha    96.19565209889666
_cell_angle_beta     98.5316674080323
_cell_angle_gamma    108.3011947652247

_space_group_name_H-M_alt    "P 1"
_space_group_IT_number       1

loop_
  _space_group_symop_operation_xyz
  'x, y, z'

loop_
  _atom_site_type_symbol
  _atom_site_label
  _atom_site_symmetry_multiplicity
  _atom_site_fract_x
  _atom_site_fract_y
  _atom_site_fract_z
  _atom_site_occupancy
  H   H1        1.0  0.0007886657121938651  0.544054474780493  0.4000231149834461  1.0000
  H   H2        1.0  0.9992113338771167  0.4559455243956482  0.5999768846427194  1.0000
  H   H3        1.0  0.17385022344306908  0.6480681397078465  0.307143059858515  1.0000
  H   H4        1.0  0.8261497766292053  0.3519318606239863  0.6928569403714635  1.0000
  H   H5        1.0  0.32977602151417046  0.49925007819710104  0.2408579096070367  1.0000
  H   H6        1.0  0.6702239780815102  0.5007499209805975  0.7591420905366892  1.0000
  H   H7        1.0  0.3101599380164715  0.23188041349411365  0.2665650790563854  1.0000
  H   H8        1.0  0.6898400620494328  0.7681195868361619  0.7334349206560328  1.0000
  H   H9        1.0  0.13665945510206595  0.12598179529626977  0.3578452734846491  1.0000
  H   H10       1.0  0.8633405449702084  0.874018205035563  0.6421547267453294  1.0000
  H   H11       1.0  0.0068092357063949  0.1664476636141647  0.4589365287794857  1.0000
  H   H12       1.0  0.9931907643658795  0.8335523367176682  0.5410634714504928  1.0000
  H   H13       1.0  0.5260291403449417  0.29948585218923485  0.423716407331074  1.0000
  H   H14       1.0  0.47397085972733255  0.7005141481425979  0.5762835928989045  1.0000
  H   H15       1.0  0.7158325154586637  0.4014677250398357  0.38432621809723405  1.0000
  H   H16       1.0  0.28416748461361063  0.5985322752919973  0.6156737821327444  1.0000
  H   H17       1.0  0.7068230715301652  0.46979720557353927  0.4722194852830108  1.0000
  H   H18       1.0  0.29317692854210925  0.5302027947582935  0.5277805149469678  1.0000
  H   H19       1.0  0.819772710824663  0.10939796770920732  0.5336365450793294  1.0000
  H   H20       1.0  0.18022728924124154  0.8906020326210683  0.46636345463308865  1.0000
  H   H21       1.0  0.39572315942713593  0.9030671077864192  0.6905895007434992  1.0000
  H   H22       1.0  0.6042768406387685  0.09693289254385642  0.30941049896891903  1.0000
  H   H23       1.0  0.2201654769493359  0.9920983023756996  0.7024784754454001  1.0000
  H   H24       1.0  0.7798345226399745  0.007901696800441319  0.2975215241807654  1.0000
  H   H25       1.0  0.29705927697789575  0.3166296144718335  0.05229873460815728  1.0000
  H   H26       1.0  0.7029407226177848  0.6833703847058648  0.9477012655355687  1.0000
  H   H27       1.0  0.2793703695286331  0.2950355202640578  0.14267929935651671  1.0000
  H   H28       1.0  0.7206296318910596  0.7049644800706336  0.8573207004316197  1.0000
  H   H29       1.0  0.07088083506859354  0.26427740664048416  0.07998678609894638  1.0000
  H   H30       1.0  0.929119164520717  0.735722592535657  0.9200132135272191  1.0000
  H   H31       1.0  0.035212059185007354  0.8554629420924966  0.09068220669128392  1.0000
  H   H32       1.0  0.964787940887267  0.14453705823933627  0.9093177935386947  1.0000
  H   H33       1.0  0.9604695523563773  0.00823018049029439  0.12996209444124152  1.0000
  H   H34       1.0  0.03953044770952698  0.9917698198399811  0.8700379052711764  1.0000
  H   H35       1.0  0.1833718548649198  0.9903174490127892  0.1657237369911999  1.0000
  H   H36       1.0  0.8166281452073546  0.009682551319043557  0.8342762632387787  1.0000
  H   H37       1.0  0.8814145327321655  0.6664574125397998  0.18786008422205788  1.0000
  H   H38       1.0  0.11858546686351507  0.3335425866378985  0.812139915921668  1.0000
  H   H39       1.0  0.6268962534053938  0.6100991482344776  0.17640832087433  1.0000
  H   H40       1.0  0.3731037466668805  0.3899008520973552  0.8235916793556486  1.0000
  H   H41       1.0  0.7367554533528666  0.6151471567611104  0.10035922066541464  1.0000
  H   H42       1.0  0.2632445467194077  0.3848528435707224  0.8996407795645638  1.0000
  H   H43       1.0  0.5651528089282821  0.27668964830380316  0.21190043404503903  1.0000
  H   H44       1.0  0.43484719113762227  0.7233103520264724  0.788099565667379  1.0000
  H   H45       1.0  0.7251154114601729  0.4578289412610555  0.26044499730151593  1.0000
  H   H46       1.0  0.2748845886057315  0.5421710590692201  0.7395550024109021  1.0000
  H   H47       1.0  0.8168088713336509  0.3101609695128288  0.23231703097614262  1.0000
  H   H48       1.0  0.1831911282620296  0.6898390296648694  0.7676829691675833  1.0000
  H   H49       1.0  0.7206957184389814  0.12476970003653293  0.04998294477957989  1.0000
  H   H50       1.0  0.2793042816269231  0.8752303002937427  0.9500170549328382  1.0000
  H   H51       1.0  0.7520537908198281  0.3289375929151113  0.8676963894059285  1.0000
  H   H52       1.0  0.24794620877585238  0.671062406262587  0.13230361073779753  1.0000
  H   H53       1.0  0.456825242538594  0.1842320505280921  0.9864710253122055  1.0000
  H   H54       1.0  0.5431747575273105  0.8157679498021836  0.013528974400212543  1.0000
  H   H55       1.0  0.9531054127556605  0.45093521285422894  0.9352846444744044  1.0000
  H   H56       1.0  0.04689458731661382  0.5490647874776038  0.06471535575557416  1.0000
  H   H57       1.0  0.6574491591156785  0.13035368887063004  0.13356001130332745  1.0000
  H   H58       1.0  0.34255084048000206  0.8696463103070683  0.8664399888403983  1.0000
  H   H59       1.0  0.505463797348132  0.1565028819757112  0.9013636897825796  1.0000
  H   H60       1.0  0.4945362027241424  0.8434971183561216  0.09863631044739901  1.0000
  C   C1        1.0  0.0628397493632527  0.4726338965262015  0.36976773060233586  1.0000
  C   C2        1.0  0.9371602507026516  0.527366103804074  0.6302322691100822  1.0000
  C   C3        1.0  0.16206193041641953  0.53265503947973  0.31804516217972784  1.0000
  C   C4        1.0  0.8379380691792611  0.46734495969796835  0.681954837963998  1.0000
  C   C5        1.0  0.2503941861229964  0.44717089238374885  0.2799467637920345  1.0000
  C   C6        1.0  0.749605813949278  0.552829107948084  0.7200532364379439  1.0000
  C   C7        1.0  0.23932986390296895  0.30006324071828344  0.29440920044708124  1.0000
  C   C8        1.0  0.7606701361629354  0.6999367596119923  0.7055907992653369  1.0000
  C   C9        1.0  0.14132339492279666  0.23952113700271804  0.34617729434670386  1.0000
  C   C10       1.0  0.8586766051431076  0.7604788633275575  0.6538227053657142  1.0000
  C   C11       1.0  0.04893122145302542  0.3237876520490983  0.38430582619989645  1.0000
  C   C12       1.0  0.9510687781426551  0.6762123471285999  0.6156941739438294  1.0000
  C   C13       1.0  0.9502029404394853  0.25143692311533894  0.4373372700378526  1.0000
  C   C14       1.0  0.04979705962641927  0.7485630772149368  0.5626627296745655  1.0000
  C   C15       1.0  0.7933856708836718  0.2680580860233522  0.46174702244416077  1.0000
  C   C16       1.0  0.2066143291886025  0.7319419143084807  0.5382529777858177  1.0000
  C   C17       1.0  0.6804802946954736  0.364867036429351  0.43401524194938257  1.0000
  C   C18       1.0  0.3195197053704308  0.6351329639009247  0.5659847577630355  1.0000
  C   C19       1.0  0.7348845338462693  0.18076188390477432  0.5163555953351063  1.0000
  C   C20       1.0  0.26511546622600507  0.8192381164270586  0.4836444048948723  1.0000
  C   C21       1.0  0.591842587135894  0.17521569268402826  0.5533392395285374  1.0000
  C   C22       1.0  0.4081574142901686  0.8247843076522204  0.4466607607771594  1.0000
  C   C23       1.0  0.5678976314157157  0.0802954249170951  0.6099438741227061  1.0000
  C   C24       1.0  0.4321023681799647  0.9197045742606031  0.3900561260210198  1.0000
  C   C25       1.0  0.3276709596007134  0.19270802869876724  0.618492228172872  1.0000
  C   C26       1.0  0.672329040465191  0.8072919716315083  0.3815077715395461  1.0000
  C   C27       1.0  0.3722144495861672  0.013898017149586767  0.7010697310054917  1.0000
  C   C28       1.0  0.6277855504797372  0.9861019831806888  0.2989302687069264  1.0000
  C   C29       1.0  0.49266953902536514  0.10067171431391984  0.7738862837478012  1.0000
  C   C30       1.0  0.5073304610405392  0.8993282860163558  0.22611371596461682  1.0000
  C   C31       1.0  0.21240452488486875  0.2495417548061652  0.08673965187386977  1.0000
  C   C32       1.0  0.7875954747044419  0.750458244369976  0.9132603477522957  1.0000
  C   C33       1.0  0.18451715137144384  0.08081562483815614  0.06982822029011292  1.0000
  C   C34       1.0  0.8154828487008304  0.9191843754936766  0.9301717799398657  1.0000
  C   C35       1.0  0.08164502360947623  0.9762993123508169  0.11597429433712167  1.0000
  C   C36       1.0  0.9183549764564282  0.02370068797945874  0.8840257053752966  1.0000
  C   C37       1.0  0.712211006854908  0.3345427168235594  0.9705945003397718  1.0000
  C   C38       1.0  0.28778899321099627  0.6654572835067161  0.029405499372646252  1.0000
  C   C39       1.0  0.7379577179778811  0.340027336321162  0.09360718241735981  1.0000
  C   C40       1.0  0.26204228161779936  0.6599726628565363  0.906392817726366  1.0000
  C   C41       1.0  0.7455283447823624  0.5894346312476321  0.15434966586680543  1.0000
  C   C42       1.0  0.25447165528991195  0.41056536908420066  0.845650334363173  1.0000
  C   C43       1.0  0.7081468344483935  0.3640508211811188  0.21769818574733893  1.0000
  C   C44       1.0  0.29185316562388086  0.635949179150714  0.7823018144826396  1.0000
  N   N1        1.0  0.41845901075601877  0.09515801972582441  0.6427675803959543  1.0000
  N   N2        1.0  0.5815409893162555  0.9048419806060084  0.3572324198340242  1.0000
  N   N3        1.0  0.8132345679496903  0.3772210055529134  0.9201116537608186  1.0000
  N   N4        1.0  0.18676543212258417  0.6227789947789195  0.07988834646916004  1.0000
  N   N5        1.0  0.5357653249897186  0.2279485468472851  0.950106005115438  1.0000
  N   N6        1.0  0.4642346746059619  0.7720514523304133  0.04989399502828801  1.0000
  N   N7        1.0  0.7873129049789185  0.40820487098344926  0.0378528869851771  1.0000
  N   N8        1.0  0.2126870946167621  0.591795128194249  0.9621471131585487  1.0000
  N   N9        1.0  0.7098379145061027  0.18912005588890315  0.09449867076645276  1.0000
  N   N10       1.0  0.29016208508957797  0.8108799432887951  0.9055013293772731  1.0000
  N   N11       1.0  0.7321284684177172  0.4284775989514097  0.15293470963216052  1.0000
  N   N12       1.0  0.2678715316545571  0.5715224013804231  0.8470652905978181  1.0000
  O   O1        1.0  0.6617817857015499  0.9979923374805072  0.6280641131050498  1.0000
  O   O2        1.0  0.3382182143643545  0.0020076628497686217  0.3719358866073682  1.0000
  O   O3        1.0  0.6123234061697109  0.23350994154168825  0.778968922701122  1.0000
  O   O4        1.0  0.3876765938961935  0.7664900587885874  0.22103107701129612  1.0000
  O   O5        1.0  0.45654538328901384  0.025588781772664475  0.8247483482603024  1.0000
  O   O6        1.0  0.5434546167832606  0.9744112185591685  0.17525165196967613  1.0000
  O   O7        1.0  0.24535622846995453  0.03108387193953317  0.01945861917210917  1.0000
  O   O8        1.0  0.7546437716023198  0.9689161283922996  0.9805413810578693  1.0000
  S   S1        1.0  0.4242004470404242  0.27088187873651987  0.5483455321351786  1.0000
  S   S2        1.0  0.57579955303185  0.729118121595313  0.45165446809479987  1.0000
  S   S3        1.0  0.14964007743561103  0.23071748777701528  0.6483379194674385  1.0000
  S   S4        1.0  0.8503599221600694  0.7692825114006829  0.35166208067628735  1.0000
