data_image0
_chemical_formula_structural       H54C58N4O8
_chemical_formula_sum              "H54 C58 N4 O8"
_cell_length_a       8.261736127751174
_cell_length_b       10.18153088601208
_cell_length_c       14.382866206020461
_cell_angle_alpha    76.84741855174364
_cell_angle_beta     86.19350804315347
_cell_angle_gamma    81.82315251687807

_space_group_name_H-M_alt    "P 1"
_space_group_IT_number       1

loop_
  _space_group_symop_operation_xyz
  'x, y, z'

loop_
  _atom_site_type_symbol
  _atom_site_label
  _atom_site_symmetry_multiplicity
  _atom_site_fract_x
  _atom_site_fract_y
  _atom_site_fract_z
  _atom_site_occupancy
  H   H1        1.0  0.9906694518775597  0.6863086041608699  0.9127895467883617  1.0000
  H   H2        1.0  0.00933054831374038  0.3136913957765689  0.08721045328566585  1.0000
  H   H3        1.0  0.16020242185995162  0.8671833432050391  0.9153547584864719  1.0000
  H   H4        1.0  0.8397975783313486  0.13281665673239967  0.0846452415875557  1.0000
  H   H5        1.0  0.14182973429212725  0.07906755236821626  0.7887461171627119  1.0000
  H   H6        1.0  0.8581702658991729  0.9209324475692225  0.21125388291131558  1.0000
  H   H7        1.0  0.9466076974262574  0.11386436075202883  0.657789132145537  1.0000
  H   H8        1.0  0.05339230276913169  0.8861356391831536  0.3422108672334313  1.0000
  H   H9        1.0  0.3966412363152512  0.6693635336894461  0.5569082609680301  1.0000
  H   H10       1.0  0.603358763876049  0.3306364662479927  0.4430917391059974  1.0000
  H   H11       1.0  0.4899626102089971  0.6476536688813568  0.3939674357501719  1.0000
  H   H12       1.0  0.5100373899823031  0.3523463310560821  0.6060325643238557  1.0000
  H   H13       1.0  0.005869845002150307  0.6261255252506832  0.3163452477591072  1.0000
  H   H14       1.0  0.9941301539751906  0.373874474692534  0.6836547523581336  1.0000
  H   H15       1.0  0.720777354283851  0.6553282122628957  0.9542678981251721  1.0000
  H   H16       1.0  0.27922264469348995  0.3446717876803213  0.04573210199206869  1.0000
  H   H17       1.0  0.6809790654054282  0.42879501413344145  0.055397652194700504  1.0000
  H   H18       1.0  0.31902093478587207  0.5712049858039974  0.9446023478793271  1.0000
  H   H19       1.0  0.6645361806693979  0.23375397436937292  0.9802489723823031  1.0000
  H   H20       1.0  0.3354638195259911  0.7662460255658096  0.019751026996665245  1.0000
  H   H21       1.0  0.7015257283162586  0.2649580660133956  0.8036242147066586  1.0000
  H   H22       1.0  0.2984742718791304  0.735041933921787  0.1963757846723097  1.0000
  H   H23       1.0  0.7481926711774154  0.48683590603781735  0.7035690608937569  1.0000
  H   H24       1.0  0.2518073276467363  0.5131640949227556  0.2964309390639226  1.0000
  H   H25       1.0  0.592556789468367  0.11153068345532019  0.660283858700796  1.0000
  H   H26       1.0  0.40744321072293316  0.8884693164821186  0.33971614137323164  1.0000
  H   H27       1.0  0.4669865259204784  0.002331139361786777  0.6280497213485046  1.0000
  H   H28       1.0  0.5330134742749107  0.9976688605733955  0.3719502780304637  1.0000
  H   H29       1.0  0.5330535918904075  0.9714661329664266  0.7474733234455483  1.0000
  H   H30       1.0  0.4669464083008928  0.028533866971012192  0.2525266766284793  1.0000
  H   H31       1.0  0.6763633458083674  0.9581483466437714  0.49307217121028146  1.0000
  H   H32       1.0  0.32363665438293265  0.041851653293667676  0.5069278288637461  1.0000
  H   H33       1.0  0.771550305353963  0.08449231824614171  0.5257185293446984  1.0000
  H   H34       1.0  0.22844969362337794  0.9155076816970755  0.47428147077254235  1.0000
  H   H35       1.0  0.8891365964575175  0.9272958579346969  0.5174018602977302  1.0000
  H   H36       1.0  0.11086340373378265  0.07270414200274196  0.4825981397762974  1.0000
  H   H37       1.0  0.2948174168035039  0.702725200718989  0.7025209871759995  1.0000
  H   H38       1.0  0.7051825833877963  0.29727479921844985  0.2974790128980281  1.0000
  H   H39       1.0  0.43932301144387464  0.6542299486863429  0.7945208045931247  1.0000
  H   H40       1.0  0.5606769887474257  0.34577005125109594  0.20547919548090285  1.0000
  H   H41       1.0  0.37596722559460044  0.8276513525047707  0.7467243628196063  1.0000
  H   H42       1.0  0.6240327745966997  0.17234864743266823  0.25327563725442115  1.0000
  H   H43       1.0  0.7686352068612954  0.5696937268037466  0.13130017418331486  1.0000
  H   H44       1.0  0.2313647921160455  0.43030627313947045  0.8686998259339259  1.0000
  H   H45       1.0  0.9047732439385339  0.666407399510255  0.1710945564095445  1.0000
  H   H46       1.0  0.09522675625276646  0.33359260042718397  0.828905443664483  1.0000
  H   H47       1.0  0.9056587827097848  0.48953155884145905  0.22591640442165703  1.0000
  H   H48       1.0  0.09434121748151543  0.5104684410959799  0.7740835956523705  1.0000
  H   H49       1.0  0.43008536670936626  0.13762329139194326  0.8380033748165969  1.0000
  H   H50       1.0  0.5699146334860228  0.8623767085432391  0.1619966245623715  1.0000
  H   H51       1.0  0.21921454460460385  0.12292162956478829  0.9706491868139171  1.0000
  H   H52       1.0  0.7807854555866963  0.8770783703726506  0.029350813260110412  1.0000
  H   H53       1.0  0.2891050121188115  0.9884988606031867  0.13222126782190674  1.0000
  H   H54       1.0  0.7108949880724887  0.01150113933425219  0.8677787322521208  1.0000
  C   C1        1.0  0.7064005988030918  0.762410622780967  0.6690292457818505  1.0000
  C   C2        1.0  0.2935994013922973  0.2375893771542155  0.33097075359711775  1.0000
  C   C3        1.0  0.7256243904397078  0.9195238387751313  0.644310680607385  1.0000
  C   C4        1.0  0.274375608537633  0.08047616116808577  0.3556893195098559  1.0000
  C   C5        1.0  0.8582724757505512  0.9209449545625237  0.7118848767348707  1.0000
  C   C6        1.0  0.14172752444074915  0.07905504537491509  0.28811512333915695  1.0000
  C   C7        1.0  0.8692486046799324  0.8011681727786378  0.7837429436904901  1.0000
  C   C8        1.0  0.13075139551136788  0.19883182715880104  0.21625705638353743  1.0000
  C   C9        1.0  0.9783450986307534  0.779601080339138  0.857527220035573  1.0000
  C   C10       1.0  0.021654901564635873  0.2203989195960445  0.1424727793433953  1.0000
  C   C11       1.0  0.07475018990607246  0.8819586984359915  0.8583236539492146  1.0000
  C   C12       1.0  0.9252498102852277  0.11804130150144737  0.141676346124813  1.0000
  C   C13       1.0  0.06457446377536802  0.0013510831416868637  0.7872641422152573  1.0000
  C   C14       1.0  0.9354255364159323  0.998648916795752  0.21273585785877025  1.0000
  C   C15       1.0  0.9556319702905416  0.020697970422081314  0.7131130305695695  1.0000
  C   C16       1.0  0.04436802868679938  0.979302029521136  0.28688696954767134  1.0000
  C   C17       1.0  0.56916104909622  0.00552826777906859  0.6721666368778388  1.0000
  C   C18       1.0  0.43083895109508014  0.9944717321583701  0.3278333631961887  1.0000
  C   C19       1.0  0.7692983923446481  0.9742889058927878  0.5389832937122924  1.0000
  C   C20       1.0  0.2307016064795035  0.025711095067784868  0.46101670624538715  1.0000
  C   C21       1.0  0.7417922355886799  0.586051736555971  0.8222747536194012  1.0000
  C   C22       1.0  0.25820776460262024  0.4139482633814678  0.17772524645462642  1.0000
  C   C23       1.0  0.7228398815508701  0.5681752651937227  0.9219743171906755  1.0000
  C   C24       1.0  0.27716011848724087  0.4318247357610719  0.07802568272379075  1.0000
  C   C25       1.0  0.6982694258331354  0.44138940838300617  0.9782688727927767  1.0000
  C   C26       1.0  0.3017305743581649  0.5586105915544326  0.02173112728125078  1.0000
  C   C27       1.0  0.6891990758919795  0.33158815238780937  0.936565748975447  1.0000
  C   C28       1.0  0.31080092308536156  0.6684118475554077  0.06343425114179387  1.0000
  C   C29       1.0  0.7074387874135684  0.34949928047503465  0.8375353184396264  1.0000
  C   C30       1.0  0.29256121277773195  0.6505007194624043  0.16246468163440123  1.0000
  C   C31       1.0  0.7345040190359098  0.4752442340000088  0.7804907479529821  1.0000
  C   C32       1.0  0.2654959811553905  0.52475576593743  0.21950925212104544  1.0000
  C   C33       1.0  0.5410164407834115  0.7255389205075773  0.6533013795001088  1.0000
  C   C34       1.0  0.45898355940788865  0.2744610794298616  0.3466986205739188  1.0000
  C   C35       1.0  0.5172343869459799  0.6907757543061778  0.5706350275182245  1.0000
  C   C36       1.0  0.4827656132453203  0.3092242456312611  0.42936497255580314  1.0000
  C   C37       1.0  0.6455896473955923  0.6774479359328551  0.4988410946608662  1.0000
  C   C38       1.0  0.354410352795708  0.3225520640045837  0.5011589054131613  1.0000
  C   C39       1.0  0.8079081449873722  0.6806356305259983  0.5236883338896942  1.0000
  C   C40       1.0  0.1920918552039281  0.3193643694114406  0.47631166618433335  1.0000
  C   C41       1.0  0.9352561659198756  0.6607206889864472  0.45580328841714096  1.0000
  C   C42       1.0  0.0647438342714248  0.33927931095099173  0.5441967116568865  1.0000
  C   C43       1.0  0.9028441484722941  0.6402200907586105  0.36547820287680155  1.0000
  C   C44       1.0  0.09715585171900602  0.3597799091788283  0.634521797197226  1.0000
  C   C45       1.0  0.7431589794915311  0.6366901103743651  0.34319909281451305  1.0000
  C   C46       1.0  0.2568410206997691  0.36330988956307375  0.6568009072595145  1.0000
  C   C47       1.0  0.6150795024449339  0.6540778698883126  0.41051030456586096  1.0000
  C   C48       1.0  0.3849204965324069  0.3459221300549045  0.5894896955513799  1.0000
  C   C49       1.0  0.8281139213591296  0.5837507125060297  0.19337351739484132  1.0000
  C   C50       1.0  0.17188607761821126  0.41624928743718737  0.8066264827223995  1.0000
  C   C51       1.0  0.4058904055882792  0.7283622721755075  0.7280177770312841  1.0000
  C   C52       1.0  0.594109594603021  0.2716377277619314  0.27198222304274344  1.0000
  C   C53       1.0  0.3425922414075048  0.0694921357716861  0.9832842058066683  1.0000
  C   C54       1.0  0.6574077587837953  0.9305078641657529  0.016715794267359158  1.0000
  C   C55       1.0  0.46045137840339223  0.07608556741736096  0.9086755614096362  1.0000
  C   C56       1.0  0.5395486217879079  0.9239144325200781  0.0913244386643913  1.0000
  C   C57       1.0  0.38210674742086204  0.9936148208622051  0.07459377667828722  1.0000
  C   C58       1.0  0.6178932527704382  0.0063851790752337025  0.9254062233957403  1.0000
  N   N1        1.0  0.7606926243311972  0.7159911159797473  0.7657798856388878  1.0000
  N   N2        1.0  0.239307375860103  0.28400888395769164  0.23422011443513965  1.0000
  N   N3        1.0  0.10278854393184275  0.6663082529077475  0.47423017291303626  1.0000
  N   N4        1.0  0.8972114562594574  0.3336917470296913  0.5257698271609914  1.0000
  O   O1        1.0  0.8381725445593541  0.6970597847835798  0.6106102385511246  1.0000
  O   O2        1.0  0.16182745563194617  0.30294021515385905  0.38938976152290283  1.0000
  O   O3        1.0  0.20787162501232478  0.6611501249388394  0.4073249882046209  1.0000
  O   O4        1.0  0.7921283751789754  0.33884987499859937  0.5926750118694067  1.0000
  O   O5        1.0  0.1376400943850417  0.6789497810585835  0.554433377736125  1.0000
  O   O6        1.0  0.8623599058103473  0.321050218876599  0.4455666216428434  1.0000
  O   O7        1.0  0.6981688355555887  0.616568357592327  0.2584528371979386  1.0000
  O   O8        1.0  0.3018311646357116  0.38343164234511196  0.7415471628760889  1.0000
