data_image0
_chemical_formula_structural       H54C36N60O24P6
_chemical_formula_sum              "H54 C36 N60 O24 P6"
_cell_length_a       10.162892217802035
_cell_length_b       10.162892217802277
_cell_length_c       18.4249255721384
_cell_angle_alpha    89.99980475739173
_cell_angle_beta     90.00019524260827
_cell_angle_gamma    119.99953689506155

_space_group_name_H-M_alt    "P 1"
_space_group_IT_number       1

loop_
  _space_group_symop_operation_xyz
  'x, y, z'

loop_
  _atom_site_type_symbol
  _atom_site_label
  _atom_site_symmetry_multiplicity
  _atom_site_fract_x
  _atom_site_fract_y
  _atom_site_fract_z
  _atom_site_occupancy
  H   H1        1.0  0.5105282440495714  0.4332477885597561  0.028312052619151866  1.0000
  H   H2        1.0  0.5667554388918368  0.07727751711442334  0.028311734184928106  1.0000
  H   H3        1.0  0.9227313213317067  0.48947579138912767  0.028312905316447354  1.0000
  H   H4        1.0  0.5667522115641556  0.4894717557578376  0.5283120528334844  1.0000
  H   H5        1.0  0.9227224827273358  0.4332445607250429  0.5283117343992605  1.0000
  H   H6        1.0  0.5105242089331687  0.07726867866688446  0.5283129049880368  1.0000
  H   H7        1.0  0.17719491040744806  0.766581121137332  0.36164538626097215  1.0000
  H   H8        1.0  0.2334221058178032  0.41061085082818677  0.3616450678267479  1.0000
  H   H9        1.0  0.5893979876895821  0.8228091239667047  0.3616462384155246  1.0000
  H   H10       1.0  0.23341887849012083  0.8228050894716021  0.861645385932561  1.0000
  H   H11       1.0  0.5893891496533011  0.7665778944388074  0.8616450674983372  1.0000
  H   H12       1.0  0.17719087529104544  0.4106020112444604  0.8616462386298571  1.0000
  H   H13       1.0  0.8438615776296721  0.09991445491178741  0.6949787194059969  1.0000
  H   H14       1.0  0.9000887722968371  0.7439441831963648  0.6949784009487993  1.0000
  H   H15       1.0  0.25606465479064866  0.15614245795055787  0.6949795720803181  1.0000
  H   H16       1.0  0.9000855452062788  0.15613842318026172  0.194978719191664  1.0000
  H   H17       1.0  0.25605581568021213  0.09991122722067736  0.19497840127720958  1.0000
  H   H18       1.0  0.8438575418321033  0.7439353446830301  0.19497957186598627  1.0000
  H   H19       1.0  0.7729717368667104  0.639710813402091  0.03461677973432638  1.0000
  H   H20       1.0  0.36028629730471745  0.13325778780752773  0.0346161607034995  1.0000
  H   H21       1.0  0.8667437370498166  0.22702768677685317  0.034618200400124734  1.0000
  H   H22       1.0  0.36028918656629566  0.22702826297723283  0.5346167794059157  1.0000
  H   H23       1.0  0.8667422121663398  0.6397137026172471  0.5346161609178317  1.0000
  H   H24       1.0  0.7729723137390678  0.1332562630944757  0.5346182000717142  1.0000
  H   H25       1.0  0.439638403224586  0.9730441459796682  0.3679501128334037  1.0000
  H   H26       1.0  0.026952964230682754  0.46659112152129234  0.36794949380257624  1.0000
  H   H27       1.0  0.5334104034076921  0.5603610193544302  0.367951533499202  1.0000
  H   H28       1.0  0.026955853492262132  0.5603615966909963  0.8679501130477355  1.0000
  H   H29       1.0  0.5334088790923053  0.9730470363310117  0.8679494940169085  1.0000
  H   H30       1.0  0.4396389806650343  0.4665895968082392  0.8679515337135341  1.0000
  H   H31       1.0  0.10630507032565148  0.30637747996352244  0.7012834459554541  1.0000
  H   H32       1.0  0.6936196312778077  0.7999244550256568  0.7012828274673703  1.0000
  H   H33       1.0  0.2000770703336573  0.8936943530681947  0.7012848665982788  1.0000
  H   H34       1.0  0.69362252003332  0.893694930129566  0.2012834462838646  1.0000
  H   H35       1.0  0.20007554511921508  0.3063803691128827  0.20128282725303778  1.0000
  H   H36       1.0  0.1063056470849336  0.7999229304562078  0.20128486692668907  1.0000
  H   H37       1.0  0.8427182266615024  0.8366836934547073  0.04404968313588851  1.0000
  H   H38       1.0  0.1633139753160861  0.0060334624290895875  0.04404889875729169  1.0000
  H   H39       1.0  0.9939717181624113  0.1572825032878411  0.04404971856904178  1.0000
  H   H40       1.0  0.16331630620763962  0.1572817723583829  0.5440496833502213  1.0000
  H   H41       1.0  0.9939665372371435  0.836686024718948  0.5440488989716235  1.0000
  H   H42       1.0  0.8427174975627351  0.006028282074415906  0.5440497187833745  1.0000
  H   H43       1.0  0.5093848937625681  0.1700170274385618  0.377383016257939  1.0000
  H   H44       1.0  0.8299806413792414  0.33936679593345864  0.3773822324220847  1.0000
  H   H45       1.0  0.660638384520288  0.490615835865417  0.3773830522108621  1.0000
  H   H46       1.0  0.8299829732547634  0.49061510586274854  0.8773830164722721  1.0000
  H   H47       1.0  0.6606332043382088  0.17001935870280235  0.8773822320936739  1.0000
  H   H48       1.0  0.5093841644887006  0.33936161578818047  0.8773830518824515  1.0000
  H   H49       1.0  0.1760515601204447  0.5033503600161378  0.7107163498997593  1.0000
  H   H50       1.0  0.49664730830520676  0.6727001296472233  0.7107155655211616  1.0000
  H   H51       1.0  0.3273050514462534  0.8239491695791815  0.7107163853099389  1.0000
  H   H52       1.0  0.4966496396746628  0.8239484395107172  0.2107163496854272  1.0000
  H   H53       1.0  0.32729987019001955  0.5033526912145824  0.21071556584957263  1.0000
  H   H54       1.0  0.17605083090860002  0.6726949494361493  0.21071638509560633  1.0000
  C   C1        1.0  0.35265169278866515  0.5393354155629653  0.02893720919935629  1.0000
  C   C2        1.0  0.4606672028806567  0.813311396452662  0.028937747076486716  1.0000
  C   C3        1.0  0.18668885913668065  0.6473492682392065  0.0289384353721751  1.0000
  C   C4        1.0  0.4606645840370029  0.6473483078885464  0.5289372094136875  1.0000
  C   C5        1.0  0.18668860320895952  0.5393327974046488  0.5289377467480753  1.0000
  C   C6        1.0  0.3526507312914604  0.8133111404363457  0.5289384355865072  1.0000
  C   C7        1.0  0.019318359714631486  0.8726687492767287  0.36227054284117605  1.0000
  C   C8        1.0  0.12733386899775262  0.14664473043652104  0.3622710801985363  1.0000
  C   C9        1.0  0.8533555261838056  0.9806826017435709  0.362271769036969  1.0000
  C   C10       1.0  0.1273312503948785  0.9806816404661235  0.8622705425127648  1.0000
  C   C11       1.0  0.8533552702560846  0.8726661309090133  0.8622710804128692  1.0000
  C   C12       1.0  0.01931739839252584  0.1466444744202  0.8622717687085577  1.0000
  C   C13       1.0  0.685985025952886  0.20600208305118867  0.6956038759861998  1.0000
  C   C14       1.0  0.7940005360448764  0.4799780639408866  0.6956044133205872  1.0000
  C   C15       1.0  0.5200221927167812  0.31401593459123767  0.69560510215902  1.0000
  C   C16       1.0  0.7939979171110377  0.3140149741747818  0.1956038763146107  1.0000
  C   C17       1.0  0.5200219362829942  0.20599946369088423  0.19560441364899853  1.0000
  C   C18       1.0  0.6859840653494634  0.47997780672257756  0.19560510194468836  1.0000
  C   C19       1.0  0.6138291213957568  0.7083503455829189  0.030507474263719418  1.0000
  C   C20       1.0  0.2916462236504586  0.9054818503128902  0.03050766608597339  1.0000
  C   C21       1.0  0.09452297103686615  0.386168311412201  0.030507916443140944  1.0000
  C   C22       1.0  0.29164965446234986  0.38617087851366777  0.5305074739353086  1.0000
  C   C23       1.0  0.09451814976523705  0.7083537768028411  0.5305076663003051  1.0000
  C   C24       1.0  0.6138316885854508  0.905477029177745  0.5305079161147299  1.0000
  C   C25       1.0  0.28049578792873253  0.04168367843058572  0.36384080738577046  1.0000
  C   C26       1.0  0.9583128898887141  0.23881518408734922  0.3638409997737401  1.0000
  C   C27       1.0  0.76118963808399  0.7195016449165667  0.36384124956519187  1.0000
  C   C28       1.0  0.9583163205255052  0.7195042120180368  0.8638408076001017  1.0000
  C   C29       1.0  0.7611848164193712  0.041687109441108997  0.8638409994453303  1.0000
  C   C30       1.0  0.2804983551184277  0.23881036202541073  0.8638412497795239  1.0000
  C   C31       1.0  0.9471624539918867  0.37501701193495596  0.6971741405078205  1.0000
  C   C32       1.0  0.6249795562465897  0.5721485166649263  0.6971743328728174  1.0000
  C   C33       1.0  0.42785630461696567  0.05283497776423346  0.6971745826872429  1.0000
  C   C34       1.0  0.6249829881044743  0.052837545936090725  0.1971741408362314  1.0000
  C   C35       1.0  0.4278514828392718  0.37502044308907656  0.19717433320122846  1.0000
  C   C36       1.0  0.9471650216594855  0.5721436954639804  0.1971745830156531  1.0000
  N   N1        1.0  0.33333338998510686  0.666665942027513  0.029931693041624848  1.0000
  N   N2        1.0  0.33333405784062237  0.6666666101371268  0.5299316932559568  1.0000
  N   N3        1.0  5.592710385776431e-08  0.9999992757412812  0.3632650266834437  1.0000
  N   N4        1.0  7.247665877835159e-07  0.9999999438508915  0.8632650263550335  1.0000
  N   N5        1.0  0.666666722581238  0.33333260837954887  0.696598359828469  1.0000
  N   N6        1.0  0.6666673914827458  0.3333332775595509  0.19659835961413646  1.0000
  N   N7        1.0  0.4943660150578521  0.5627765730922811  0.02855934084548738  1.0000
  N   N8        1.0  0.43722062772959464  0.9315870545976447  0.028559663327917918  1.0000
  N   N9        1.0  0.06841470809189407  0.5056356374248726  0.0285611389259357  1.0000
  N   N10       1.0  0.4372234274238182  0.5056339845713628  0.5285593410598203  1.0000
  N   N11       1.0  0.06841294559842352  0.5627793720924102  0.5285596629995074  1.0000
  N   N12       1.0  0.4943643621609649  0.9315852916013232  0.5285611385975248  1.0000
  N   N13       1.0  0.16103268141572877  0.896109905669857  0.36189267448730766  1.0000
  N   N14       1.0  0.10388729426257044  0.2649203874453116  0.361892996449969  1.0000
  N   N15       1.0  0.7350813751390178  0.8389689709292382  0.3618944720479866  1.0000
  N   N16       1.0  0.10389009434978351  0.8389673182851273  0.8618926741588971  1.0000
  N   N17       1.0  0.7350796126455484  0.8961127055967747  0.8618929966643013  1.0000
  N   N18       1.0  0.16103102926203167  0.2649186255851767  0.8618944722623183  1.0000
  N   N19       1.0  0.8276993486379526  0.22944323944431247  0.6952260076323324  1.0000
  N   N20       1.0  0.7705539613096942  0.5982537209496772  0.6952263295720198  1.0000
  N   N21       1.0  0.40174804224008454  0.17230230491309145  0.6952278057127802  1.0000
  N   N22       1.0  0.7705567610659415  0.17230065199378672  0.19522600741800003  1.0000
  N   N23       1.0  0.4017462786724582  0.22944603837864566  0.19522632990043062  1.0000
  N   N24       1.0  0.8276976952349997  0.5982519578875589  0.19522780549844798  1.0000
  N   N25       1.0  0.23465046661355607  0.40063556115256016  0.029531149952032137  1.0000
  N   N26       1.0  0.5993617253790843  0.8340118208038  0.029531662578947914  1.0000
  N   N27       1.0  0.16598684241173428  0.7653502114398613  0.02953260041728226  1.0000
  N   N28       1.0  0.5993644382441953  0.7653495332138047  0.5295311496236209  1.0000
  N   N29       1.0  0.16598817880968317  0.40063827441641586  0.52953166279328  1.0000
  N   N30       1.0  0.234649788756002  0.8340131580614492  0.5295326006316141  1.0000
  N   N31       1.0  0.9013171336606798  0.7339688946569258  0.362864483074083  1.0000
  N   N32       1.0  0.26602839248014976  0.16734515478765438  0.3628649957009984  1.0000
  N   N33       1.0  0.8326535086499899  0.09868354521432014  0.362865934105049  1.0000
  N   N34       1.0  0.2660311047771721  0.0986828660614704  0.8628644832884149  1.0000
  N   N35       1.0  0.8326548458568068  0.7339716079207814  0.8628649959153307  1.0000
  N   N36       1.0  0.9013164544261667  0.16734649069972174  0.8628659337766384  1.0000
  N   N37       1.0  0.5679838007617454  0.06730222864078017  0.6961978161961335  1.0000
  N   N38       1.0  0.932695058543305  0.5006784882920234  0.6961983293657914  1.0000
  N   N39       1.0  0.4993201755759551  0.43201687892808466  0.6961992672041257  1.0000
  N   N40       1.0  0.93269777131823  0.43201619950004017  0.19619781652454413  1.0000
  N   N41       1.0  0.4993215124518066  0.06730494183883998  0.1961983291514596  1.0000
  N   N42       1.0  0.5679831218300367  0.5006798243476847  0.1961992675325374  1.0000
  N   N43       1.0  0.753051221207451  0.7292118528776622  0.03339335540292736  1.0000
  N   N44       1.0  0.2707852684166241  0.02383188986965839  0.03339224481907382  1.0000
  N   N45       1.0  0.9761680378311759  0.24695190524916172  0.03339358440222504  1.0000
  N   N46       1.0  0.27078814833676695  0.24694877976558297  0.5333933556172598  1.0000
  N   N47       1.0  0.9761681107392101  0.7292147315845826  0.5333922444906636  1.0000
  N   N48       1.0  0.7530480950632222  0.02383196177253425  0.5333935840738149  1.0000
  N   N49       1.0  0.41971788774042784  0.06254518572532797  0.3667266890677214  1.0000
  N   N50       1.0  0.9374519354637477  0.35716522337402395  0.3667255779411247  1.0000
  N   N51       1.0  0.6428347041890513  0.5802852378267387  0.3667269175013023  1.0000
  N   N52       1.0  0.9374548143999213  0.5802821132699532  0.8667266887393097  1.0000
  N   N53       1.0  0.6428347772721869  0.06254806443224831  0.8667255781554575  1.0000
  N   N54       1.0  0.4197147619891886  0.35716529548629766  0.8667269177156346  1.0000
  N   N55       1.0  0.08638455368242362  0.39587851943909713  0.7000600221667973  1.0000
  N   N56       1.0  0.6041186018216246  0.6904985559515999  0.7000589115829451  1.0000
  N   N57       1.0  0.3095013711150167  0.9136185715405034  0.700060250600379  1.0000
  N   N58       1.0  0.6041214812357015  0.9136154457817286  0.20006002249520924  1.0000
  N   N59       1.0  0.30950144369208615  0.39588139808021694  0.20005891136861262  1.0000
  N   N60       1.0  0.08638142840908802  0.6904986291342664  0.20006025092878968  1.0000
  O   O1        1.0  0.5228655051155654  0.3297970004341381  0.031132346301163502  1.0000
  O   O2        1.0  0.6702059005300618  0.1930633677802821  0.031132209021198717  1.0000
  O   O3        1.0  0.8069388848983875  0.4771357983557769  0.031132407065944872  1.0000
  O   O4        1.0  0.6702029998648896  0.4771344947235872  0.531132346515496  1.0000
  O   O5        1.0  0.806936632965274  0.32979410007772536  0.5311322092355311  1.0000
  O   O6        1.0  0.5228642016145046  0.19306111492885725  0.5311324072802771  1.0000
  O   O7        1.0  0.18953217204153067  0.6631303341479026  0.36446567940024027  1.0000
  O   O8        1.0  0.3368725668879385  0.526396700357858  0.364465542663019  1.0000
  O   O9        1.0  0.4736055518243528  0.8104691320695416  0.36446574016502165  1.0000
  O   O10       1.0  0.33686966679085495  0.8104678284373518  0.8644656796145729  1.0000
  O   O11       1.0  0.4736032993231495  0.6631274326553024  0.8644655423346084  1.0000
  O   O12       1.0  0.1895308679723801  0.5263944475064342  0.8644657403793544  1.0000
  O   O13       1.0  0.8561988385205658  0.9964636665160795  0.6977990130650348  1.0000
  O   O14       1.0  0.0035392338139038134  0.8597300340716226  0.6977988757620958  1.0000
  O   O15       1.0  0.14027221835732964  0.14380246491720727  0.6977990738298158  1.0000
  O   O16       1.0  0.003536332817764727  0.14380116121922276  0.1977990128507022  1.0000
  O   O17       1.0  0.14026996574304992  0.9964607663032697  0.1977988760905064  1.0000
  O   O18       1.0  0.8561975345134379  0.8597277809450039  0.19779907361548366  1.0000
  O   O19       1.0  0.6666694927410435  0.3333337271981166  0.9159498792803437  1.0000
  O   O20       1.0  0.6666662727473229  0.3333305072172454  0.4159498790660116  1.0000
  O   O21       1.0  0.3333361591609428  0.6666670608460853  0.24928321249349886  1.0000
  O   O22       1.0  0.3333329396732893  0.6666638409310088  0.7492832127078314  1.0000
  O   O23       1.0  2.8256939196714506e-06  3.9369375106140176e-07  0.5826165461582928  1.0000
  O   O24       1.0  0.9999996062143471  0.9999971743695786  0.08261654594396058  1.0000
  P   P1        1.0  0.6666697509476049  0.3333326290579863  0.9985641429888492  1.0000
  P   P2        1.0  0.6666673709272471  0.3333302487177458  0.4985641427745171  1.0000
  P   P3        1.0  0.33333641835147393  0.6666659627059502  0.331897476202005  1.0000
  P   P4        1.0  0.3333340372851238  0.6666635812953218  0.8318974764163375  1.0000
  P   P5        1.0  3.085277440405576e-06  0.9999992964197137  0.6652308098438248  1.0000
  P   P6        1.0  7.037050232541796e-07  0.9999969149432905  0.16523080962949252  1.0000
