data_image0
_chemical_formula_structural       H40C36N4O4I4
_chemical_formula_sum              "H40 C36 N4 O4 I4"
_cell_length_a       6.837294475290865
_cell_length_b       7.555860062915526
_cell_length_c       19.382657116867406
_cell_angle_alpha    90.0
_cell_angle_beta     103.59461134126109
_cell_angle_gamma    90.0

_space_group_name_H-M_alt    "P 1"
_space_group_IT_number       1

loop_
  _space_group_symop_operation_xyz
  'x, y, z'

loop_
  _atom_site_type_symbol
  _atom_site_label
  _atom_site_symmetry_multiplicity
  _atom_site_fract_x
  _atom_site_fract_y
  _atom_site_fract_z
  _atom_site_occupancy
  H   H1        1.0  0.6901944556434698  0.18792609553069153  0.22141749461042484  1.0000
  H   H2        1.0  0.30980554493505935  0.6879260953377602  0.2785825057957963  1.0000
  H   H3        1.0  0.3098055439917627  0.8120739040834456  0.7785825056532186  1.0000
  H   H4        1.0  0.6901944561654246  0.312073904276377  0.7214174944719415  1.0000
  H   H5        1.0  0.2878366807824458  0.031439548644623415  0.6053463098826469  1.0000
  H   H6        1.0  0.7121633190323471  0.531439548451692  0.8946536897117325  1.0000
  H   H7        1.0  0.7121633185103923  0.9685604509695137  0.3946536898502159  1.0000
  H   H8        1.0  0.28783668026049086  0.46856045116244516  0.1053463100211303  1.0000
  H   H9        1.0  0.932593191483034  0.29200836193737584  0.2500686825616102  1.0000
  H   H10       1.0  0.06740680728784894  0.7920083617444444  0.249931317309736  1.0000
  H   H11       1.0  0.06740680780980385  0.7079916376767614  0.7499313171712526  1.0000
  H   H12       1.0  0.9325931923473836  0.20799163786969274  0.7500686829539074  1.0000
  H   H13       1.0  0.7287255349951569  0.40698072018203013  0.19083240137392854  1.0000
  H   H14       1.0  0.2712744655833722  0.9069807213125747  0.3091675990322926  1.0000
  H   H15       1.0  0.27127446464007576  0.593019279432107  0.809167598889715  1.0000
  H   H16       1.0  0.7287255355171117  0.09301927962503846  0.6908324012354452  1.0000
  H   H17       1.0  0.5925740540005664  0.27458089783619577  0.07547463977249792  1.0000
  H   H18       1.0  0.4074259465779627  0.7745808976432643  0.4245253606337232  1.0000
  H   H19       1.0  0.4074259470999178  0.7254191017779413  0.92452536049524  1.0000
  H   H20       1.0  0.5925740530572697  0.22541910197087275  0.5754746396299202  1.0000
  H   H21       1.0  0.676529665682957  0.13928411606843782  0.9719098499779972  1.0000
  H   H22       1.0  0.32347033447423057  0.6392841158755064  0.528090150147163  1.0000
  H   H23       1.0  0.3234703350751325  0.8607158848691754  0.028090149758960056  1.0000
  H   H24       1.0  0.676529665161002  0.3607158837386307  0.47190985011648046  1.0000
  H   H25       1.0  0.1383031747113219  0.12130604092293487  0.20842931688859856  1.0000
  H   H26       1.0  0.8616968258672071  0.6213060407300035  0.29157068351762255  1.0000
  H   H27       1.0  0.8616968263891621  0.8786939586912023  0.7915706833791392  1.0000
  H   H28       1.0  0.13830317376802528  0.3786939588841337  0.7084293167460208  1.0000
  H   H29       1.0  0.24435029522494064  0.9697637368859143  0.11044144747331393  1.0000
  H   H30       1.0  0.7556497050111938  0.4697637370788457  0.38955855240212656  1.0000
  H   H31       1.0  0.7556497044102918  0.030236262728222815  0.8895585527903294  1.0000
  H   H32       1.0  0.24435029574689554  0.5302362625352913  0.6104414473348305  1.0000
  H   H33       1.0  0.33925529525145287  0.219885108533749  0.4414310947149619  1.0000
  H   H34       1.0  0.6607447053270761  0.7198851083408176  0.058568905691259186  1.0000
  H   H35       1.0  0.6607447043837796  0.7801148910803881  0.5585689055486815  1.0000
  H   H36       1.0  0.3392552943081562  0.2801148912733195  0.9414310945723842  1.0000
  H   H37       1.0  0.018883145309556402  0.13545281959669908  0.3850421757996925  1.0000
  H   H38       1.0  0.9811168549265782  0.6354528194037676  0.11495782407574796  1.0000
  H   H39       1.0  0.981116855448533  0.8645471813409141  0.6149578239372646  1.0000
  H   H40       1.0  0.018883144708654417  0.3645471815338456  0.8850421761878955  1.0000
  C   C1        1.0  0.799421934477391  0.27769455528936493  0.206132858979454  1.0000
  C   C2        1.0  0.20057806575874357  0.7776945564199096  0.2938671408959865  1.0000
  C   C3        1.0  0.2005780662806985  0.7223054443247722  0.7938671407575032  1.0000
  C   C4        1.0  0.7994219335340944  0.22230544451770362  0.7061328588368764  1.0000
  C   C5        1.0  0.7352524091558243  0.20635828972702772  0.0806261576176219  1.0000
  C   C6        1.0  0.26474759142270476  0.7063582895340963  0.41937384278859924  1.0000
  C   C7        1.0  0.2647475904794082  0.7936417112105855  0.9193738426460216  1.0000
  C   C8        1.0  0.7352524096777793  0.2936417114035169  0.5806261574791385  1.0000
  C   C9        1.0  0.7850807724390976  0.12779181614798457  0.02279061498160313  1.0000
  C   C10       1.0  0.21491922633178537  0.6277918159550532  0.47720938488974307  1.0000
  C   C11       1.0  0.21491922685374026  0.8722081834661525  0.9772093847512596  1.0000
  C   C12       1.0  0.7850807729610526  0.37220818365908404  0.5227906148431198  1.0000
  C   C13       1.0  0.9704672005242193  0.04083701093333095  0.030518050470126123  1.0000
  C   C14       1.0  0.029532799711915247  0.5408370120638756  0.46948194940531435  1.0000
  C   C15       1.0  0.02953280023387024  0.9591629886808062  0.969481949266831  1.0000
  C   C16       1.0  0.9704671999233173  0.45916298887373763  0.5305180508583291  1.0000
  C   C17       1.0  0.09799620347891866  0.03527538463929065  0.09894022705596786  1.0000
  C   C18       1.0  0.9020037967572158  0.5352753844463591  0.4010597728194726  1.0000
  C   C19       1.0  0.9020037972791708  0.9647246149748465  0.9010597726809894  1.0000
  C   C20       1.0  0.09799620287801668  0.4647246151677779  0.5989402274441707  1.0000
  C   C21       1.0  0.04124572398547189  0.11595561361705903  0.15504548061539472  1.0000
  C   C22       1.0  0.9587542762506627  0.6159556134241275  0.3449545192600458  1.0000
  C   C23       1.0  0.9587542767726175  0.8840443873205542  0.8449545191215624  1.0000
  C   C24       1.0  0.04124572338456992  0.3840443875134856  0.6550454810035977  1.0000
  C   C25       1.0  0.17135970849547547  0.09513884905414992  0.4945207192550668  1.0000
  C   C26       1.0  0.8286402920830537  0.5951388488612185  0.005479281151154293  1.0000
  C   C27       1.0  0.8286402911397571  0.9048611505599872  0.5054792810085766  1.0000
  C   C28       1.0  0.1713597090174303  0.4048611507529186  0.9945207191165834  1.0000
  C   C29       1.0  0.009684806812538629  0.07491014461450965  0.4352406936238928  1.0000
  C   C30       1.0  0.9903151919583443  0.5749101444215782  0.06475930624745341  1.0000
  C   C31       1.0  0.990315192822694  0.9250898549996275  0.5647593066397506  1.0000
  C   C32       1.0  0.009684807334493622  0.4250898551925589  0.9352406934854095  1.0000
  C   C33       1.0  0.16098158812302218  0.019485268225466604  0.5594677927014411  1.0000
  C   C34       1.0  0.8390184120341652  0.5194852680325351  0.940532207423719  1.0000
  C   C35       1.0  0.8390184115122103  0.9805147313886705  0.4405322075622024  1.0000
  C   C36       1.0  0.16098158872392407  0.48051473158160196  0.05946779231323805  1.0000
  N   N1        1.0  0.8627609683245391  0.2007597463914227  0.1454294443974116  1.0000
  N   N2        1.0  0.13723903191159542  0.7007597461984912  0.3545705554780289  1.0000
  N   N3        1.0  0.13723903131069357  0.7992402532227144  0.854570555866232  1.0000
  N   N4        1.0  0.862760968846494  0.29924025341564586  0.6454294442589282  1.0000
  O   O1        1.0  0.3390986215296961  0.19044085359155855  0.49166348785886105  1.0000
  O   O2        1.0  0.6609013787064383  0.690440853398627  0.00833651201657948  1.0000
  O   O3        1.0  0.6609013777631418  0.8095591460225786  0.5083365118740019  1.0000
  O   O4        1.0  0.33909862205165087  0.30955914621551  0.9916634877203775  1.0000
  I   I1        1.0  0.3895374719465138  0.2868795864336846  0.3255984332774101  1.0000
  I   I2        1.0  0.6104625282896208  0.7868795862407532  0.17440156659803038  1.0000
  I   I3        1.0  0.6104625288115757  0.7131204131804525  0.674401566459547  1.0000
  I   I4        1.0  0.3895374710032171  0.21312041337338397  0.8255984331348324  1.0000
