data_image0
_chemical_formula_structural       H22C30N8O4
_chemical_formula_sum              "H22 C30 N8 O4"
_cell_length_a       6.725724596553012
_cell_length_b       9.65570115222738
_cell_length_c       10.305284558271188
_cell_angle_alpha    78.71986034719016
_cell_angle_beta     74.36454908617256
_cell_angle_gamma    77.66670631078276

_space_group_name_H-M_alt    "P 1"
_space_group_IT_number       1

loop_
  _space_group_symop_operation_xyz
  'x, y, z'

loop_
  _atom_site_type_symbol
  _atom_site_label
  _atom_site_symmetry_multiplicity
  _atom_site_fract_x
  _atom_site_fract_y
  _atom_site_fract_z
  _atom_site_occupancy
  H   H1        1.0  0.04831446760983822  0.6172688656697349  0.1353948768727737  1.0000
  H   H2        1.0  0.9516855326170894  0.3827311348661717  0.8646051231896242  1.0000
  H   H3        1.0  0.9854506505249615  0.5154729803092807  0.3821599909255258  1.0000
  H   H4        1.0  0.014549349958968354  0.48452701915499224  0.6178400092989437  1.0000
  H   H5        1.0  0.5896956441508799  0.5349402812323978  0.3943258647850864  1.0000
  H   H6        1.0  0.4103043560791854  0.46505971929149953  0.6056741343086456  1.0000
  H   H7        1.0  0.6767645418361684  0.640914874995736  0.14879672808870986  1.0000
  H   H8        1.0  0.3232354571021219  0.3590851244754029  0.8512032724062158  1.0000
  H   H9        1.0  0.5576871266702835  0.8624631029629698  0.5116232966216011  1.0000
  H   H10       1.0  0.4423128738136465  0.1375368965013031  0.4883767036028684  1.0000
  H   H11       1.0  0.38425736845444136  0.9132486752845563  0.32080665829221644  1.0000
  H   H12       1.0  0.6157426320294884  0.0867513241797168  0.679193341932253  1.0000
  H   H13       1.0  0.8425661899944515  0.7794289562811975  0.5711999391578353  1.0000
  H   H14       1.0  0.1574338102324762  0.22057104425470914  0.4288000609045626  1.0000
  H   H15       1.0  0.9862438423712026  0.7323076535390665  0.7752101673753259  1.0000
  H   H16       1.0  0.013756156310085343  0.2676923470037062  0.22478983295752825  1.0000
  H   H17       1.0  0.9612844615695914  0.8745875986418635  0.3242160461711924  1.0000
  H   H18       1.0  0.03871553865733639  0.12541240189404315  0.6757839538912054  1.0000
  H   H19       1.0  0.661611416544096  0.9108399496135219  0.07435096632424903  1.0000
  H   H20       1.0  0.33838858368283165  0.08916005092238476  0.9256490337381489  1.0000
  H   H21       1.0  0.213609349959154  0.9873006881582141  0.16533045721494147  1.0000
  H   H22       1.0  0.7863906505279136  0.01269931129404947  0.8346695420408622  1.0000
  C   C1        1.0  0.1728081234467489  0.5990583824439962  0.18891334133214538  1.0000
  C   C2        1.0  0.8271918752376767  0.4009416180867671  0.8110866580320429  1.0000
  C   C3        1.0  0.1386849020503611  0.5418334864881647  0.3264357301119567  1.0000
  C   C4        1.0  0.8613150981765665  0.45816651404774206  0.6735642699504413  1.0000
  C   C5        1.0  0.47340236943330366  0.5536799832189916  0.33362392660750406  1.0000
  C   C6        1.0  0.526597630793624  0.4463200173169151  0.6663760734548938  1.0000
  C   C7        1.0  0.5227455408037532  0.6125901126788426  0.19692286065473946  1.0000
  C   C8        1.0  0.4772544596801768  0.38740988678543026  0.80307713956973  1.0000
  C   C9        1.0  0.36942606251468607  0.6355431456049124  0.12207144387977045  1.0000
  C   C10       1.0  0.630573937969244  0.36445685385936055  0.8779285563446989  1.0000
  C   C11       1.0  0.41860886162333544  0.6957053610563428  0.9791706128434037  1.0000
  C   C12       1.0  0.5813911386067298  0.3042946394675544  0.020829386250328284  1.0000
  C   C13       1.0  0.3814515512228369  0.7661032706973168  0.7751568045400914  1.0000
  C   C14       1.0  0.6185484492610931  0.2338967287669561  0.22484319568437808  1.0000
  C   C15       1.0  0.2855812864479493  0.7932434176464801  0.6604570898396349  1.0000
  C   C16       1.0  0.7144187140359806  0.20675658181779283  0.33954291038483453  1.0000
  C   C17       1.0  0.3982238014663094  0.8438166443002703  0.5300445936578283  1.0000
  C   C18       1.0  0.6017761987606183  0.15618335623563645  0.46995540640456945  1.0000
  C   C19       1.0  0.30144508731342323  0.8711852141757853  0.42242860087735656  1.0000
  C   C20       1.0  0.6985549131705067  0.1288147852884876  0.5775713993471129  1.0000
  C   C21       1.0  0.00038523143245968995  0.7977060923661383  0.5613303704377035  1.0000
  C   C22       1.0  0.9996147672488283  0.20229390817663426  0.43866962989515057  1.0000
  C   C23       1.0  0.08163158556475138  0.7695871419276831  0.6762137947755894  1.0000
  C   C24       1.0  0.9183684149191785  0.2304128575365898  0.32378620544888  1.0000
  C   C25       1.0  0.8098177517113319  0.9504353776679487  0.04225590128180152  1.0000
  C   C26       1.0  0.19018224723009594  0.04956462179118078  0.9577440982444582  1.0000
  C   C27       1.0  0.9281846062805246  0.9402732195971136  0.1376923087943612  1.0000
  C   C28       1.0  0.07181539420340555  0.059726779867159206  0.8623076914301083  1.0000
  C   C29       1.0  0.11976083720452346  0.9910126246926091  0.09323453428035534  1.0000
  C   C30       1.0  0.8802391630224042  0.00898737584329747  0.9067654657820425  1.0000
  N   N1        1.0  0.28513965182170165  0.5177147839974487  0.3986222041386376  1.0000
  N   N2        1.0  0.7148603486622284  0.4822852154668242  0.601377796085832  1.0000
  N   N3        1.0  0.5921983980498303  0.7407907568515607  0.9075804626589947  1.0000
  N   N4        1.0  0.4078016008884599  0.25920924261957823  0.092419537835931  1.0000
  N   N5        1.0  0.5673994238644297  0.7869124283357198  0.7763020084841884  1.0000
  N   N6        1.0  0.43260057661950047  0.21308757112855312  0.22369799174028096  1.0000
  N   N7        1.0  0.1057148317539785  0.8487003854569949  0.43706377605668056  1.0000
  N   N8        1.0  0.8942851687299515  0.15129961400727812  0.5629362241677889  1.0000
  O   O1        1.0  0.27789262202827664  0.7080463715250647  0.901265436090768  1.0000
  O   O2        1.0  0.7221073769100136  0.2919536279460743  0.09873456440415761  1.0000
  O   O3        1.0  0.852876050314196  0.8824713730152164  0.26897817976654337  1.0000
  O   O4        1.0  0.14712395016973398  0.11752862644905657  0.7310218204579261  1.0000
