data_image0
_chemical_formula_structural       H92C84N12O30S4
_chemical_formula_sum              "H92 C84 N12 O30 S4"
_cell_length_a       23.24931571261246
_cell_length_b       6.975035706878123
_cell_length_c       14.786124260676482
_cell_angle_alpha    90.0
_cell_angle_beta     110.95163755054148
_cell_angle_gamma    90.0

_space_group_name_H-M_alt    "P 1"
_space_group_IT_number       1

loop_
  _space_group_symop_operation_xyz
  'x, y, z'

loop_
  _atom_site_type_symbol
  _atom_site_label
  _atom_site_symmetry_multiplicity
  _atom_site_fract_x
  _atom_site_fract_y
  _atom_site_fract_z
  _atom_site_occupancy
  H   H1        1.0  0.09064982196953805  0.26980633491872147  0.5807935920926175  1.0000
  H   H2        1.0  0.9093501778829346  0.26980633491872147  0.41920640747912064  1.0000
  H   H3        1.0  0.590649821777374  0.769806335859353  0.5807935923122517  1.0000
  H   H4        1.0  0.4093501780843555  0.769806335859353  0.4192064079408644  1.0000
  H   H5        1.0  0.07590532243601882  0.021278301106565697  0.5699484605473497  1.0000
  H   H6        1.0  0.9240946774164539  0.021278301106565697  0.4300515390243884  1.0000
  H   H7        1.0  0.5759053227043338  0.5212783006135128  0.5699484610122948  1.0000
  H   H8        1.0  0.42409467761787467  0.5212783006135128  0.4300515394861321  1.0000
  H   H9        1.0  0.19031388526670687  0.3838022646049196  0.7602282964286445  1.0000
  H   H10       1.0  0.8096861150555016  0.3838022646049196  0.2397717040697825  1.0000
  H   H11       1.0  0.6903138850745428  0.8838022655455511  0.7602282966482785  1.0000
  H   H12       1.0  0.30968611478718666  0.8838022655455511  0.23977170360483735  1.0000
  H   H13       1.0  0.2722728337446295  0.29350129892256493  0.9133589744028565  1.0000
  H   H14       1.0  0.7277271661171  0.29350129892256493  0.08664102585025943  1.0000
  H   H15       1.0  0.7722728340036877  0.7935012998631964  0.9133589741864239  1.0000
  H   H16       1.0  0.227727165848785  0.7935012998631964  0.08664102538531429  1.0000
  H   H17       1.0  0.9757246292808729  0.007527802323394968  0.5966858756198515  1.0000
  H   H18       1.0  0.02427537104133556  0.007527802323394968  0.40331412487857543  1.0000
  H   H19       1.0  0.475724629012558  0.5075278018303421  0.5966858751549065  1.0000
  H   H20       1.0  0.5242753708399146  0.5075278018303421  0.4033141244168317  1.0000
  H   H21       1.0  0.9776695896722495  0.2544925796221471  0.5709610168704485  1.0000
  H   H22       1.0  0.022330410180223075  0.2544925796221471  0.42903898270128965  1.0000
  H   H23       1.0  0.4776695894131915  0.7544925791290942  0.5709610170868811  1.0000
  H   H24       1.0  0.522330410448538  0.7544925791290942  0.4290389831662348  1.0000
  H   H25       1.0  0.9618852840165844  0.1775522036079004  0.6752732676061852  1.0000
  H   H26       1.0  0.03811471583588842  0.1775522036079004  0.32472673196555285  1.0000
  H   H27       1.0  0.46188528421800507  0.6775522031148474  0.6752732680679289  1.0000
  H   H28       1.0  0.5381147156437244  0.6775522031148474  0.324726732185187  1.0000
  H   H29       1.0  0.25790742818622037  0.8744744580999431  0.8824150320001919  1.0000
  H   H30       1.0  0.7420925716662523  0.8744744580999431  0.11758496757154624  1.0000
  H   H31       1.0  0.7579074284545354  0.3744744571593115  0.8824150324651371  1.0000
  H   H32       1.0  0.24209257186767316  0.3744744571593115  0.11758496803328994  1.0000
  H   H33       1.0  0.35140626120657786  0.718885819474073  0.9125978731454015  1.0000
  H   H34       1.0  0.6485937386551517  0.718885819474073  0.08740212710771447  1.0000
  H   H35       1.0  0.8514062614656359  0.21888581853344155  0.9125978729289688  1.0000
  H   H36       1.0  0.14859373838683662  0.21888581853344155  0.08740212664276932  1.0000
  H   H37       1.0  0.45551075135569596  0.7551968006136031  0.8804385292487207  1.0000
  H   H38       1.0  0.5444892484967767  0.7551968006136031  0.1195614703230174  1.0000
  H   H39       1.0  0.955510751624011  0.255196801106656  0.880438529713666  1.0000
  H   H40       1.0  0.04448924823771854  0.255196801106656  0.11956147053944997  1.0000
  H   H41       1.0  0.4415070375419972  0.8511409029986395  0.9821568072215684  1.0000
  H   H42       1.0  0.5584929627709544  0.8511409029986395  0.017843192595480905  1.0000
  H   H43       1.0  0.9415070373498331  0.35114090349169247  0.9821568074412024  1.0000
  H   H44       1.0  0.05849296251189631  0.35114090349169247  0.017843192811913516  1.0000
  H   H45       1.0  0.43901582154331853  0.9937197358237282  0.8888446257337027  1.0000
  H   H46       1.0  0.5609841783091541  0.9937197358237282  0.1111553738380354  1.0000
  H   H47       1.0  0.9390158218116336  0.4937197363167811  0.8888446261986479  1.0000
  H   H48       1.0  0.06098417851057502  0.4937197363167811  0.1111553742997791  1.0000
  H   H49       1.0  0.38754393029988804  0.9295905487058885  0.6979611095824892  1.0000
  H   H50       1.0  0.6124560695525846  0.9295905487058885  0.3020388899892489  1.0000
  H   H51       1.0  0.8875439305682031  0.42959054776525707  0.6979611100474344  1.0000
  H   H52       1.0  0.11245606975400546  0.42959054776525707  0.3020388904509925  1.0000
  H   H53       1.0  0.31137244781303597  0.9955376849401026  0.6754157476293511  1.0000
  H   H54       1.0  0.6886275520394367  0.9955376849401026  0.3245842519423871  1.0000
  H   H55       1.0  0.811372448081351  0.49553768399947123  0.6754157480942962  1.0000
  H   H56       1.0  0.18862755224085756  0.49553768399947123  0.3245842524041308  1.0000
  H   H57       1.0  0.321615971606286  0.8500978259011523  0.5230738184343052  1.0000
  H   H58       1.0  0.6783840287066656  0.8500978259011523  0.47692618138274395  1.0000
  H   H59       1.0  0.821615971414122  0.3500978249605209  0.5230738186539393  1.0000
  H   H60       1.0  0.17838402844760748  0.3500978249605209  0.4769261815991766  1.0000
  H   H61       1.0  0.29059263557417225  0.5189408645507951  0.5008362193918079  1.0000
  H   H62       1.0  0.7094073642783003  0.5189408645507951  0.4991637801799303  1.0000
  H   H63       1.0  0.7905926353820083  0.018940865043848076  0.500836219611442  1.0000
  H   H64       1.0  0.20940736447972125  0.018940865043848076  0.49916378064167405  1.0000
  H   H65       1.0  0.33438942321746384  0.3317617596879256  0.6615366761382476  1.0000
  H   H66       1.0  0.6656105771047446  0.3317617596879256  0.3384633243601794  1.0000
  H   H67       1.0  0.8343894230160429  0.8317617591948726  0.6615366756765039  1.0000
  H   H68       1.0  0.1656105768364297  0.8317617591948726  0.3384633238952343  1.0000
  H   H69       1.0  0.2575775036967088  0.3882306734759367  0.6369847406452542  1.0000
  H   H70       1.0  0.742422496155764  0.3882306734759367  0.36301525892648384  1.0000
  H   H71       1.0  0.7575775039650238  0.8882306729828838  0.6369847411101994  1.0000
  H   H72       1.0  0.24242249589670573  0.8882306729828838  0.3630152591429165  1.0000
  H   H73       1.0  0.3242382886301242  0.4700386346075643  0.8118679025367787  1.0000
  H   H74       1.0  0.6757617112316052  0.4700386346075643  0.1881320977163373  1.0000
  H   H75       1.0  0.8242382888891824  0.9700386355481957  0.8118679023203459  1.0000
  H   H76       1.0  0.17576171096329032  0.9700386355481957  0.18813209725139216  1.0000
  H   H77       1.0  0.4238871585903451  0.15058420116247767  0.6090004262861405  1.0000
  H   H78       1.0  0.5761128412713845  0.15058420116247767  0.39099957396697543  1.0000
  H   H79       1.0  0.9238871588494032  0.6505842006694248  0.6090004260697078  1.0000
  H   H80       1.0  0.07611284146354849  0.6505842006694248  0.3909995737473413  1.0000
  H   H81       1.0  0.3364203416949462  0.15568763740222308  0.45125029363617114  1.0000
  H   H82       1.0  0.6635796581575264  0.15568763740222308  0.5487497059355669  1.0000
  H   H83       1.0  0.8364203419632611  0.6556876369091701  0.4512502941011163  1.0000
  H   H84       1.0  0.1635796583589473  0.6556876369091701  0.5487497063973107  1.0000
  H   H85       1.0  0.35681297716936977  0.15312129498445617  0.29698831990857  1.0000
  H   H86       1.0  0.6431870226831029  0.15312129498445617  0.7030116796631681  1.0000
  H   H87       1.0  0.8568129774376847  0.6531212944914032  0.29698832037351514  1.0000
  H   H88       1.0  0.14318702288452373  0.6531212944914032  0.7030116801249118  1.0000
  H   H89       1.0  0.5367675267268169  0.14581602915624636  0.7016195829510068  1.0000
  H   H90       1.0  0.4632324731349125  0.14581602915624636  0.29838041730210924  1.0000
  H   H91       1.0  0.036767526918981  0.6458160286631935  0.7016195827313726  1.0000
  H   H92       1.0  0.9632324729334917  0.6458160286631935  0.2983804168403656  1.0000
  C   C1        1.0  0.09512415844562189  0.13654999917216085  0.6227943508787085  1.0000
  C   C2        1.0  0.9048758418765865  0.13654999917216085  0.37720564961971853  1.0000
  C   C3        1.0  0.5951241582442011  0.6365500001127924  0.6227943504169647  1.0000
  C   C4        1.0  0.4048758416082716  0.6365500001127924  0.3772056491547734  1.0000
  C   C5        1.0  0.05707121414294169  0.1538019366613609  0.6863430418491229  1.0000
  C   C6        1.0  0.9429287857095309  0.1538019366613609  0.31365695772261526  1.0000
  C   C7        1.0  0.5570712139507776  0.6538019376019925  0.686343042068757  1.0000
  C   C8        1.0  0.4429287859109518  0.6538019376019925  0.313656958184359  1.0000
  C   C9        1.0  0.08131592230808087  0.18284597722451268  0.7835444960118133  1.0000
  C   C10       1.0  0.9186840775536486  0.18284597722451268  0.21645550424130278  1.0000
  C   C11       1.0  0.58131592210666  0.6828459767314597  0.7835444955500696  1.0000
  C   C12       1.0  0.4186840777458126  0.6828459767314597  0.21645550402166863  1.0000
  C   C13       1.0  0.18954315315405432  0.23324296367339398  0.781424220398535  1.0000
  C   C14       1.0  0.8104568471681542  0.23324296367339398  0.21857578009989204  1.0000
  C   C15       1.0  0.6895431529526335  0.7332429646140255  0.7814242199367912  1.0000
  C   C16       1.0  0.3104568468998392  0.7332429646140255  0.21857577963494687  1.0000
  C   C17       1.0  0.24146715529726326  0.17424346499065688  0.8785387260824319  1.0000
  C   C18       1.0  0.7585328450156885  0.17424346499065688  0.12146127373461729  1.0000
  C   C19       1.0  0.7414671551050992  0.6742434659312885  0.878538726302066  1.0000
  C   C20       1.0  0.25853284475663024  0.6742434659312885  0.12146127395104997  1.0000
  C   C21       1.0  0.18816227069929345  0.13848390898522434  0.9156255647283814  1.0000
  C   C22       1.0  0.811837729162436  0.13848390898522434  0.08437443552473448  1.0000
  C   C23       1.0  0.6881622709676084  0.6384839084921715  0.9156255651933266  1.0000
  C   C24       1.0  0.3118377293546001  0.6384839084921715  0.08437443530510039  1.0000
  C   C25       1.0  0.04513679601751128  0.22084613681346363  0.8483072621054913  1.0000
  C   C26       1.0  0.9548632042954405  0.22084613681346363  0.15169273771155795  1.0000
  C   C27       1.0  0.5451367958253472  0.7208461363204107  0.8483072623251253  1.0000
  C   C28       1.0  0.45486320403638225  0.7208461363204107  0.15169273792799057  1.0000
  C   C29       1.0  0.9893286000186469  0.14930071382618032  0.6302245357325524  1.0000
  C   C30       1.0  0.010671399843082718  0.14930071382618032  0.3697754645205636  1.0000
  C   C31       1.0  0.4893286002108108  0.6493007147668118  0.6302245355129183  1.0000
  C   C32       1.0  0.5106714001021408  0.6493007147668118  0.36977546430413094  1.0000
  C   C33       1.0  0.3321989060159169  0.015164677923540301  0.8694666253424035  1.0000
  C   C34       1.0  0.6678010938458127  0.015164677923540301  0.13053337491071243  1.0000
  C   C35       1.0  0.832198906284232  0.5151646788641718  0.8694666258073488  1.0000
  C   C36       1.0  0.16780109403797663  0.5151646788641718  0.1305333746910783  1.0000
  C   C37       1.0  0.36190365960376936  0.8216714911363739  0.8644110584792543  1.0000
  C   C38       1.0  0.6380963407091823  0.8216714911363739  0.13558894133779498  1.0000
  C   C39       1.0  0.8619036594116054  0.3216714916294269  0.8644110586988882  1.0000
  C   C40       1.0  0.13809634045012414  0.3216714916294269  0.13558894155422765  1.0000
  C   C41       1.0  0.3400646038472055  0.7411308052376578  0.7627967582852053  1.0000
  C   C42       1.0  0.659935396014524  0.7411308052376578  0.23720324196791068  1.0000
  C   C43       1.0  0.8400646041062636  0.2411308042970264  0.7627967580687727  1.0000
  C   C44       1.0  0.15993539620668806  0.2411308042970264  0.23720324174827656  1.0000
  C   C45       1.0  0.3409351856401013  0.8684169722639443  0.6810794915863514  1.0000
  C   C46       1.0  0.6590648142216282  0.8684169722639443  0.31892050866676447  1.0000
  C   C47       1.0  0.8409351854386803  0.3684169727569972  0.6810794911246077  1.0000
  C   C48       1.0  0.15906481441379228  0.3684169727569972  0.31892050844713044  1.0000
  C   C49       1.0  0.32127643602175054  0.7666727504673174  0.5853646605070973  1.0000
  C   C50       1.0  0.6787235638399789  0.7666727504673174  0.4146353397460185  1.0000
  C   C51       1.0  0.8212764362808088  0.26667274952668585  0.5853646602906647  1.0000
  C   C52       1.0  0.17872356403214293  0.26667274952668585  0.4146353395263844  1.0000
  C   C53       1.0  0.3042017320501654  0.5824903944210006  0.5729958182041311  1.0000
  C   C54       1.0  0.6957982682720432  0.5824903944210006  0.4270041822942958  1.0000
  C   C55       1.0  0.8042017318487445  0.0824903949140534  0.5729958177423874  1.0000
  C   C56       1.0  0.19579826800372815  0.0824903949140534  0.4270041818293507  1.0000
  C   C57       1.0  0.30336184219518536  0.455851102936233  0.6542171943652959  1.0000
  C   C58       1.0  0.6966381581177662  0.455851102936233  0.3457828054517532  1.0000
  C   C59       1.0  0.8033618420030213  0.9558511024431801  0.65421719458493  1.0000
  C   C60       1.0  0.19663815785870817  0.9558511024431801  0.3457828056681859  1.0000
  C   C61       1.0  0.3222953943685696  0.5570896283969227  0.7495430554682705  1.0000
  C   C62       1.0  0.6777046054839031  0.5570896283969227  0.2504569441034676  1.0000
  C   C63       1.0  0.8222953946368845  0.057089627456291085  0.7495430559332158  1.0000
  C   C64       1.0  0.17770460568532392  0.057089627456291085  0.2504569445652113  1.0000
  C   C65       1.0  0.4942661841661118  0.14437126952726514  0.5446717868284279  1.0000
  C   C66       1.0  0.5057338156863609  0.14437126952726514  0.4553282127433102  1.0000
  C   C67       1.0  0.9942661839739478  0.6443712704678967  0.5446717870480621  1.0000
  C   C68       1.0  0.005733815887781768  0.6443712704678967  0.45532821320505396  1.0000
  C   C69       1.0  0.43232564067536655  0.14762627221888028  0.5410223848383493  1.0000
  C   C70       1.0  0.5676743591771062  0.14762627221888028  0.45897761473338894  1.0000
  C   C71       1.0  0.9323256404832025  0.6476262717258273  0.5410223850579834  1.0000
  C   C72       1.0  0.06767435937852705  0.6476262717258273  0.4589776151951326  1.0000
  C   C73       1.0  0.38380786030152064  0.14964928121739846  0.4534668491128352  1.0000
  C   C74       1.0  0.6161921395509521  0.14964928121739846  0.546533150458903  1.0000
  C   C75       1.0  0.8838078605698356  0.6496492807243455  0.45346684957778033  1.0000
  C   C76       1.0  0.11619213975237289  0.6496492807243455  0.5465331509206467  1.0000
  C   C77       1.0  0.39528852032191036  0.14738799816985124  0.36566226057409223  1.0000
  C   C78       1.0  0.6047114795398192  0.14738799816985124  0.6343377396790238  1.0000
  C   C79       1.0  0.8952885205809685  0.6473879991104827  0.3656622603576596  1.0000
  C   C80       1.0  0.10471147927150416  0.6473879991104827  0.6343377392140785  1.0000
  C   C81       1.0  0.5452208618195379  0.14481205293386024  0.6335888364342708  1.0000
  C   C82       1.0  0.45477913803293474  0.14481205293386024  0.36641116313746735  1.0000
  C   C83       1.0  0.04522086156047978  0.6448120538744917  0.6335888366507035  1.0000
  C   C84       1.0  0.9547791383012497  0.6448120538744917  0.3664111636024125  1.0000
  N   N1        1.0  0.14514103983269588  0.19890746919501642  0.8288734533408053  1.0000
  N   N2        1.0  0.8548589600290336  0.19890746919501642  0.17112654691231055  1.0000
  N   N3        1.0  0.645141040091754  0.6989074701356479  0.8288734531243728  1.0000
  N   N4        1.0  0.3548589602211976  0.6989074701356479  0.1711265466926765  1.0000
  N   N5        1.0  0.2764219050755075  0.005180063804457786  0.8783446475721378  1.0000
  N   N6        1.0  0.7235780947862219  0.005180063804457786  0.12165535268097817  1.0000
  N   N7        1.0  0.7764219048740868  0.5051800633114049  0.8783446471103941  1.0000
  N   N8        1.0  0.223578094978386  0.5051800633114049  0.12165535246134405  1.0000
  N   N9        1.0  0.4295090193073532  0.8563446326317664  0.9055851411246614  1.0000
  N   N10       1.0  0.5704909805543763  0.8563446326317664  0.0944148591284545  1.0000
  N   N11       1.0  0.9295090195664113  0.35634463312481934  0.9055851409082288  1.0000
  N   N12       1.0  0.07049098074654035  0.35634463312481934  0.09441485890882038  1.0000
  O   O1        1.0  0.9943658148472939  0.13521997730706098  0.8320094069494446  1.0000
  O   O2        1.0  0.005634185474914462  0.13521997730706098  0.1679905935489823  1.0000
  O   O3        1.0  0.49436581457897905  0.6352199782476925  0.8320094064844996  1.0000
  O   O4        1.0  0.5056341852734936  0.6352199782476925  0.16799059308723863  1.0000
  O   O5        1.0  0.06891584189430458  0.3436750535393189  0.9149000131186129  1.0000
  O   O6        1.0  0.931084157967425  0.3436750535393189  0.08509998713450315  1.0000
  O   O7        1.0  0.5689158421533627  0.843675053046266  0.9149000129021801  1.0000
  O   O8        1.0  0.4310841576991099  0.843675053046266  0.08509998666955795  1.0000
  O   O9        1.0  0.18449656387709282  0.07367424793155675  0.9901999369004967  1.0000
  O   O10       1.0  0.8155034359753798  0.07367424793155675  0.009800062671241531  1.0000
  O   O11       1.0  0.6844965641454078  0.5736742474385038  0.9901999373654418  1.0000
  O   O12       1.0  0.31550343617680066  0.5736742474385038  0.009800063132985228  1.0000
  O   O13       1.0  0.3577836550363209  0.16805144077529546  0.8636230221935797  1.0000
  O   O14       1.0  0.6422163452858876  0.16805144077529546  0.13637697830484743  1.0000
  O   O15       1.0  0.8577836548349  0.6680514402822425  0.8636230217318358  1.0000
  O   O16       1.0  0.1422163450175726  0.6680514402822425  0.1363769778399023  1.0000
  O   O17       1.0  0.18408761272728819  0.6697161973513066  0.8706642846930844  1.0000
  O   O18       1.0  0.8159123875949204  0.6697161973513066  0.12933571580534253  1.0000
  O   O19       1.0  0.6840876125258674  0.16971619641067517  0.8706642842313408  1.0000
  O   O20       1.0  0.3159123873266053  0.16971619641067517  0.12933571534039742  1.0000
  O   O21       1.0  0.1403073288096856  0.6665130338208364  0.9009364589544687  1.0000
  O   O22       1.0  0.8596926710520439  0.6665130338208364  0.09906354129864726  1.0000
  O   O23       1.0  0.6403073286082648  0.1665130343138893  0.9009364584927251  1.0000
  O   O24       1.0  0.3596926712442079  0.1665130343138893  0.09906354107901315  1.0000
  O   O25       1.0  0.5030423642081093  0.23327501798958614  0.9272120587053847  1.0000
  O   O26       1.0  0.4969576356536201  0.23327501798958614  0.07278794154773124  1.0000
  O   O27       1.0  0.003042364400273384  0.7332750174965332  0.9272120584857505  1.0000
  O   O28       1.0  0.9969576359126783  0.7332750174965332  0.07278794133129861  1.0000
  O   O29       1.0  0.0  0.8297517995919168  0.0  1.0000
  O   O30       1.0  0.499999999807836  0.3297518000849697  2.1963412233066745e-10  1.0000
  S   S1        1.0  0.17623050110452776  0.07529621238814639  0.6795142134199316  1.0000
  S   S2        1.0  0.823769498747945  0.07529621238814639  0.32048578615180645  1.0000
  S   S3        1.0  0.6762305013728427  0.5752962133287779  0.6795142138848768  1.0000
  S   S4        1.0  0.3237694989493658  0.5752962133287779  0.3204857866135502  1.0000
