data_image0
_chemical_formula_structural       H64B4C112O16Br4
_chemical_formula_sum              "H64 B4 C112 O16 Br4"
_cell_length_a       7.444124447270517
_cell_length_b       19.962266449710803
_cell_length_c       13.773196598393767
_cell_angle_alpha    90.0
_cell_angle_beta     100.5862146741379
_cell_angle_gamma    90.0

_space_group_name_H-M_alt    "P 1"
_space_group_IT_number       1

loop_
  _space_group_symop_operation_xyz
  'x, y, z'

loop_
  _atom_site_type_symbol
  _atom_site_label
  _atom_site_symmetry_multiplicity
  _atom_site_fract_x
  _atom_site_fract_y
  _atom_site_fract_z
  _atom_site_occupancy
  H   H1        1.0  0.16031580959876607  0.15621994766256506  0.31726154680923835  1.0000
  H   H2        1.0  0.8396841895996476  0.6562199479202812  0.1827384528535635  1.0000
  H   H3        1.0  0.8396841899834687  0.8437800523519221  0.6827384531474957  1.0000
  H   H4        1.0  0.160315809982587  0.343780052094206  0.8172615471031704  1.0000
  H   H5        1.0  0.328164019637188  0.2439225176292816  0.4170456085356404  1.0000
  H   H6        1.0  0.6718359808952677  0.7439225173860525  0.08295439110208186  1.0000
  H   H7        1.0  0.6718359812790886  0.7560774823852056  0.5829543913960141  1.0000
  H   H8        1.0  0.3281640186869671  0.25607748262843455  0.9170456088546522  1.0000
  H   H9        1.0  0.6120199583009075  0.47436252310604654  0.4392559653551849  1.0000
  H   H10       1.0  0.38798004252808105  0.9743625233637627  0.06074403502073088  1.0000
  H   H11       1.0  0.3879800426153691  0.5256374769084405  0.5607440345764695  1.0000
  H   H12       1.0  0.6120199583881956  0.02563747665072441  0.9392559649109234  1.0000
  H   H13       1.0  0.6898724200800807  0.5765364774081919  0.35528115136697286  1.0000
  H   H14       1.0  0.31012758045237504  0.07653647765142088  0.14471884827074938  1.0000
  H   H15       1.0  0.3101275795021541  0.4234635226062953  0.6447188485897613  1.0000
  H   H16       1.0  0.6898724204639016  0.9234635223630662  0.855281151660905  1.0000
  H   H17       1.0  0.5868242099446108  0.5890827416628517  0.17067694835523634  1.0000
  H   H18       1.0  0.41317579058784476  0.08908274190608062  0.32932305128248596  1.0000
  H   H19       1.0  0.41317579097166574  0.41091725835163545  0.8293230515764182  1.0000
  H   H20       1.0  0.5868242089943899  0.9109172581084065  0.6706769486742481  1.0000
  H   H21       1.0  0.4252643758218243  0.49760454380388786  0.07484289529497291  1.0000
  H   H22       1.0  0.5747356250071642  0.9976045435606589  0.4251571050809429  1.0000
  H   H23       1.0  0.5747356250944524  0.5023954562105993  0.9251571046366815  1.0000
  H   H24       1.0  0.42526437457507044  0.0023954564538283055  0.5748428948757911  1.0000
  H   H25       1.0  0.07986712970953304  0.16860684624559555  0.13130927071549595  1.0000
  H   H26       1.0  0.9201328711194555  0.6686068465033117  0.3686907296604198  1.0000
  H   H27       1.0  0.9201328698727016  0.8313931537688917  0.868690729241238  1.0000
  H   H28       1.0  0.07986712979682112  0.33139315351117543  0.6313092702712346  1.0000
  H   H29       1.0  0.16356528522423316  0.2721853544880779  0.052790879833394  1.0000
  H   H30       1.0  0.8364347142707135  0.7721853547457941  0.44720912056760137  1.0000
  H   H31       1.0  0.8364347143580017  0.7278146455264092  0.94720912012334  1.0000
  H   H32       1.0  0.16356528531152123  0.22781464526869308  0.5527908793891326  1.0000
  H   H33       1.0  0.0844411760229713  0.5816755346519392  0.17538600809567315  1.0000
  H   H34       1.0  0.9155588248060171  0.08167553439422306  0.3246139922802426  1.0000
  H   H35       1.0  0.9155588248933053  0.4183244653625479  0.8246139918359813  1.0000
  H   H36       1.0  0.08444117507275037  0.918324465620264  0.675386008414685  1.0000
  H   H37       1.0  0.938639235693326  0.48116807498775527  0.09208430989086634  1.0000
  H   H38       1.0  0.0613607638016207  0.9811680747445263  0.40791569051012894  1.0000
  H   H39       1.0  0.06136076388890882  0.5188319250267318  0.9079156900658677  1.0000
  H   H40       1.0  0.938639235780614  0.01883192526996082  0.5920843094466051  1.0000
  H   H41       1.0  0.6786870023742381  0.25499184387821566  0.10941468075588408  1.0000
  H   H42       1.0  0.3213129981582175  0.7549918441359318  0.3905853188818381  1.0000
  H   H43       1.0  0.32131299720799655  0.7450081561362715  0.8905853192008499  1.0000
  H   H44       1.0  0.678687002758059  0.24500815587855534  0.6094146810498162  1.0000
  H   H45       1.0  0.60988883310153  0.15557386571428072  0.20922558125426938  1.0000
  H   H46       1.0  0.3901111677274586  0.6555738654710517  0.2907744191216465  1.0000
  H   H47       1.0  0.3901111664807047  0.8444261343002063  0.7907744187024647  1.0000
  H   H48       1.0  0.609888833188818  0.3444261345434354  0.709225580810008  1.0000
  H   H49       1.0  0.7013059578365706  0.15740872951054724  0.3931071980135263  1.0000
  H   H50       1.0  0.2986940429924179  0.6574087297682634  0.10689280236238949  1.0000
  H   H51       1.0  0.2986940417456641  0.8425912705039398  0.6068928019432077  1.0000
  H   H52       1.0  0.7013059579238586  0.34259127024622377  0.8931071975692649  1.0000
  H   H53       1.0  0.8600319064143677  0.25644156854113936  0.4755606310810125  1.0000
  H   H54       1.0  0.13996809411808808  0.7564415687988555  0.0244393685567098  1.0000
  H   H55       1.0  0.13996809450190903  0.7435584314733478  0.524439368850642  1.0000
  H   H56       1.0  0.8600319054641465  0.24355843121563162  0.9755606314000241  1.0000
  H   H57       1.0  0.17296998146317796  0.5844458934255444  0.3608445043230647  1.0000
  H   H58       1.0  0.8270300177352358  0.08444589366877334  0.13915549533973706  1.0000
  H   H59       1.0  0.8270300181190566  0.4155541065889428  0.6391554956336694  1.0000
  H   H60       1.0  0.17296998184699894  0.9155541063457139  0.8608445046169969  1.0000
  H   H61       1.0  0.10845296305678563  0.485148837402694  0.4587591344551838  1.0000
  H   H62       1.0  0.89154703747567  0.9851488376604101  0.0412408651825385  1.0000
  H   H63       1.0  0.891547037859491  0.5148511626117931  0.5412408654764708  1.0000
  H   H64       1.0  0.10845296210656467  0.01485116235407703  0.9587591347741955  1.0000
  B   B1        1.0  0.293088245631787  0.38259980695281454  0.02430937716009766  1.0000
  B   B2        1.0  0.7069117551972016  0.8825998072105307  0.4756906232158182  1.0000
  B   B3        1.0  0.7069117552844896  0.6174001930616726  0.9756906227715567  1.0000
  B   B4        1.0  0.29308824438503317  0.11740019280395646  0.5243093767409159  1.0000
  C   C1        1.0  0.1972575365156712  0.2010589524045826  0.2803362944166371  1.0000
  C   C2        1.0  0.8027424640167844  0.7010589521613536  0.21966370522108516  1.0000
  C   C3        1.0  0.8027424630665634  0.7989410476099045  0.7196637055400968  1.0000
  C   C4        1.0  0.19725753689949224  0.2989410478531335  0.7803362947105693  1.0000
  C   C5        1.0  0.2892913352903055  0.25168711642323494  0.3378588902552532  1.0000
  C   C6        1.0  0.71070866524215  0.7516871161800059  0.162141109382469  1.0000
  C   C7        1.0  0.7107086642919291  0.7483128835912523  0.6621411097014809  1.0000
  C   C8        1.0  0.28929133567412646  0.24831288383448116  0.8378588905491854  1.0000
  C   C9        1.0  0.33760397058149155  0.3117599865565445  0.29445178561118457  1.0000
  C   C10       1.0  0.662396029950964  0.8117599868142606  0.20554821402653764  1.0000
  C   C11       1.0  0.6623960303347849  0.6882400134579426  0.7055482143204698  1.0000
  C   C12       1.0  0.3376039696312706  0.18824001320022649  0.7944517859301963  1.0000
  C   C13       1.0  0.4276842516253066  0.3657733874254434  0.3497154289223454  1.0000
  C   C14       1.0  0.57231574786964  0.8657733876831596  0.15028457147864993  1.0000
  C   C15       1.0  0.5723157479569282  0.6342266125890437  0.6502845710343886  1.0000
  C   C16       1.0  0.4276842517125946  0.13422661233132763  0.849715428478084  1.0000
  C   C17       1.0  0.47560942568003756  0.42569127415505004  0.30534572638440527  1.0000
  C   C18       1.0  0.5243905735183763  0.9256912739118212  0.19465427327839657  1.0000
  C   C19       1.0  0.5243905739021971  0.574308725859437  0.6946542735723287  1.0000
  C   C20       1.0  0.4756094260638585  0.07430872610266605  0.8053457266783374  1.0000
  C   C21       1.0  0.5704612157083812  0.47924903938643687  0.3595164096858307  1.0000
  C   C22       1.0  0.42953878349003255  0.9792490391432078  0.1404835899769711  1.0000
  C   C23       1.0  0.4295387838738536  0.5207509606280503  0.6404835902709034  1.0000
  C   C24       1.0  0.570461216092202  0.020750960871279277  0.8595164099797629  1.0000
  C   C25       1.0  0.6121837979686527  0.5368360480007144  0.31225140112344846  1.0000
  C   C26       1.0  0.3878162028603358  0.0368360482439434  0.18774859925246734  1.0000
  C   C27       1.0  0.3878162029476239  0.4631639520137727  0.687748598808206  1.0000
  C   C28       1.0  0.6121837983524737  0.9631639517705436  0.8122514014173806  1.0000
  C   C29       1.0  0.5575278713577348  0.5439225304077283  0.20953549119338802  1.0000
  C   C30       1.0  0.4424721294712537  0.04392253065095733  0.2904645091825278  1.0000
  C   C31       1.0  0.44247212955854176  0.45607746960675877  0.7904645087382665  1.0000
  C   C32       1.0  0.557527870110981  0.9560774693635297  0.7095354907742062  1.0000
  C   C33       1.0  0.4662301782935628  0.4920483099824719  0.1546033421586788  1.0000
  C   C34       1.0  0.5337698212013838  0.9920483102401881  0.3453966582423166  1.0000
  C   C35       1.0  0.5337698212886719  0.5079516900320153  0.8453966577980553  1.0000
  C   C36       1.0  0.4662301783808508  0.00795168977429913  0.6546033417144174  1.0000
  C   C37       1.0  0.425220573642314  0.4317433910479067  0.19944311463332984  1.0000
  C   C38       1.0  0.5747794255560997  0.9317433908046776  0.3005568850294719  1.0000
  C   C39       1.0  0.5747794259399207  0.5682566089665804  0.8005568853234042  1.0000
  C   C40       1.0  0.425220574026135  0.06825660920980942  0.6994431149272621  1.0000
  C   C41       1.0  0.15289238471612068  0.20793508094168003  0.1772604100620339  1.0000
  C   C42       1.0  0.847107614778826  0.7079350811993962  0.3227395903389615  1.0000
  C   C43       1.0  0.847107614866114  0.7920649190728071  0.8227395898947  1.0000
  C   C44       1.0  0.15289238480340875  0.29206491881509095  0.6772604096177726  1.0000
  C   C45       1.0  0.2009507981123736  0.2658285176870223  0.1326121872763545  1.0000
  C   C46       1.0  0.799049202420082  0.7658285179447384  0.36738781236136775  1.0000
  C   C47       1.0  0.7990492014698611  0.7341714823274649  0.8673878126803796  1.0000
  C   C48       1.0  0.20095079849619457  0.23417148206974872  0.6326121875702867  1.0000
  C   C49       1.0  0.29269275433182124  0.31895604720235765  0.18857594568348054  1.0000
  C   C50       1.0  0.7073072451631255  0.8189560469591286  0.31142405471751483  1.0000
  C   C51       1.0  0.7073072455469464  0.6810439528121295  0.811424055011447  1.0000
  C   C52       1.0  0.29269275441910936  0.18104395255441333  0.6885759452392193  1.0000
  C   C53       1.0  0.33592397187158235  0.37845585214646044  0.1406032790265706  1.0000
  C   C54       1.0  0.6640760286608735  0.8784558524041766  0.35939672061115163  1.0000
  C   C55       1.0  0.6640760290446943  0.6215441478680267  0.8593967209050839  1.0000
  C   C56       1.0  0.3359239709213614  0.12154414761031057  0.6406032793455824  1.0000
  C   C57       1.0  0.06015228284314768  0.5388468602549803  0.22013196827018275  1.0000
  C   C58       1.0  0.939847717689308  0.038846859997264206  0.2798680313675395  1.0000
  C   C59       1.0  0.939847716739087  0.46115313975950684  0.7798680316865513  1.0000
  C   C60       1.0  0.060152283226968604  0.9611531400172229  0.7201319685641149  1.0000
  C   C61       1.0  0.9764731594007924  0.4823025508779079  0.17228639312177343  1.0000
  C   C62       1.0  0.023526841131663274  0.9823025511356241  0.3277136065159488  1.0000
  C   C63       1.0  0.023526841515484207  0.517697448635634  0.827713606809881  1.0000
  C   C64       1.0  0.9764731597846134  0.017697448878863053  0.6722863934157056  1.0000
  C   C65       1.0  0.9402874812634496  0.4266455721075392  0.22715504001923303  1.0000
  C   C66       1.0  0.05971251823149706  0.9266455718643102  0.27284496038176237  1.0000
  C   C67       1.0  0.05971251831878503  0.573354427906948  0.7728449599375009  1.0000
  C   C68       1.0  0.9402874813507378  0.073354428150177  0.7271550395749717  1.0000
  C   C69       1.0  0.8510499010443358  0.3669389925464159  0.17479029365165227  1.0000
  C   C70       1.0  0.14895009845061088  0.8669389923031869  0.3252097067493431  1.0000
  C   C71       1.0  0.14895009883443192  0.6330610074680713  0.8252097070432755  1.0000
  C   C72       1.0  0.8510499011316237  0.13306100771130028  0.6747902932073908  1.0000
  C   C73       1.0  0.8080241206535401  0.31003662312550995  0.2363794495706846  1.0000
  C   C74       1.0  0.19197587884140652  0.810036623383226  0.2636205508303108  1.0000
  C   C75       1.0  0.19197587892869464  0.6899633768889771  0.7636205503860495  1.0000
  C   C76       1.0  0.8080241207408282  0.18996337663126106  0.7363794491264233  1.0000
  C   C77       1.0  0.7183872138997308  0.25389686550714413  0.1896579532952696  1.0000
  C   C78       1.0  0.2816127869292578  0.7538968652639152  0.31034204708064617  1.0000
  C   C79       1.0  0.28161278701654574  0.746103134507343  0.8103420466363848  1.0000
  C   C80       1.0  0.718387212652977  0.24610313475057197  0.6896579528760878  1.0000
  C   C81       1.0  0.680835489414785  0.19918750909456998  0.24549080025046155  1.0000
  C   C82       1.0  0.31916450978362865  0.699187508851341  0.25450919941234024  1.0000
  C   C83       1.0  0.3191645101674497  0.8008124909199171  0.7545091997062725  1.0000
  C   C84       1.0  0.680835489798606  0.3008124911631462  0.7454908005443939  1.0000
  C   C85       1.0  0.7322483719123487  0.19952078788416835  0.34858140133508464  1.0000
  C   C86       1.0  0.26775162891663995  0.6995207876409394  0.1514185990408312  1.0000
  C   C87       1.0  0.2677516276698861  0.8004792121303187  0.6514185986216495  1.0000
  C   C88       1.0  0.7322483719996368  0.3004792123735478  0.8485814008908233  1.0000
  C   C89       1.0  0.8582997534356915  0.3110412239833594  0.34033520002180145  1.0000
  C   C90       1.0  0.14170024576272228  0.8110412237401304  0.1596647996410003  1.0000
  C   C91       1.0  0.1417002461465432  0.6889587760311277  0.6596647999349324  1.0000
  C   C92       1.0  0.8582997538195125  0.18895877627435667  0.8403352003157336  1.0000
  C   C93       1.0  0.82044974639631  0.2554205386870721  0.3954327654233514  1.0000
  C   C94       1.0  0.17955025309863665  0.755420538443843  0.104567234977644  1.0000
  C   C95       1.0  0.1795502531859247  0.744579461327415  0.6045672345333827  1.0000
  C   C96       1.0  0.820449746483598  0.244579461570644  0.89543276497909  1.0000
  C   C97       1.0  0.9480125667391694  0.3707113407509501  0.3921567879343069  1.0000
  C   C98       1.0  0.05198743408981912  0.8707113410086662  0.1078432124416089  1.0000
  C   C99       1.0  0.05198743417710716  0.629288659263537  0.6078432119973475  1.0000
  C   C100      1.0  0.9480125668264575  0.12928865900582093  0.8921567874900456  1.0000
  C   C101      1.0  0.9882080040580806  0.42802248239321455  0.33134052367117356  1.0000
  C   C102      1.0  0.011791996770907911  0.9280224826509307  0.16865947670474227  1.0000
  C   C103      1.0  0.011791996858195996  0.5719775176212726  0.668659476260481  1.0000
  C   C104      1.0  0.9882080041453687  0.07197751736355647  0.8313405232269122  1.0000
  C   C105      1.0  0.10870808746158163  0.5401715495164235  0.32314465981055335  1.0000
  C   C106      1.0  0.8912919130708741  0.04017154925870742  0.17685533982716892  1.0000
  C   C107      1.0  0.8912919134546949  0.45982845049806353  0.676855340121101  1.0000
  C   C108      1.0  0.10870808651136071  0.9598284507557797  0.8231446601295651  1.0000
  C   C109      1.0  0.07301052168632764  0.4850003287146916  0.37846866720409356  1.0000
  C   C110      1.0  0.926989477808619  0.9850003289724077  0.12153133319690182  1.0000
  C   C111      1.0  0.9269894778959071  0.5149996712997955  0.6215313327526404  1.0000
  C   C112      1.0  0.0730105217736157  0.014999671042079384  0.8784686667598322  1.0000
  O   O1        1.0  0.1286266153029453  0.3975208471438353  0.9717344787623615  1.0000
  O   O2        1.0  0.8713733843665774  0.8975208469006063  0.528265520750111  1.0000
  O   O3        1.0  0.8713733842792893  0.6024791528706518  0.028265521194372405  1.0000
  O   O4        1.0  0.12862661521565727  0.10247915311388084  0.4717344792066229  1.0000
  O   O5        1.0  0.4253384726285811  0.3676868334810917  0.973456140522076  1.0000
  O   O6        1.0  0.5746615273374747  0.8676868332378627  0.5265438597285904  1.0000
  O   O7        1.0  0.5746615272501866  0.6323131665333954  0.026543860172851746  1.0000
  O   O8        1.0  0.4253384722447601  0.1323131667766244  0.47345614022814364  1.0000
  O   O9        1.0  0.9856335755227698  0.3731099110796561  0.48376181551289504  1.0000
  O   O10       1.0  0.014366425009685956  0.8731099113373721  0.016238184124827207  1.0000
  O   O11       1.0  0.014366424059464977  0.6268900889348311  0.516238184443839  1.0000
  O   O12       1.0  0.9856335759065907  0.1268900886771149  0.9837618158068272  1.0000
  O   O13       1.0  0.8159840402244604  0.36404888334236624  0.08370147058445987  1.0000
  O   O14       1.0  0.18401596060452832  0.8640488830991373  0.41629852979145593  1.0000
  O   O15       1.0  0.1840159606918164  0.6359511166721209  0.9162985293471946  1.0000
  O   O16       1.0  0.8159840389777063  0.1359511169153499  0.5837014701652781  1.0000
  Br  Br1       1.0  0.48083148019836636  0.3585054191130526  0.488950091734832  1.0000
  Br  Br2       1.0  0.5191685203340893  0.8585054188698236  0.011049907902890304  1.0000
  Br  Br3       1.0  0.5191685193838684  0.6414945809014345  0.5110499082219021  1.0000
  Br  Br4       1.0  0.48083148058218733  0.14149458114466354  0.9889500920287642  1.0000
