data_image0
_chemical_formula_structural       H20C36N8F8I4
_chemical_formula_sum              "H20 C36 N8 F8 I4"
_cell_length_a       8.172502704095056
_cell_length_b       10.001339124352375
_cell_length_c       11.535922694436001
_cell_angle_alpha    90.0
_cell_angle_beta     90.72295449150855
_cell_angle_gamma    90.0

_space_group_name_H-M_alt    "P 1"
_space_group_IT_number       1

loop_
  _space_group_symop_operation_xyz
  'x, y, z'

loop_
  _atom_site_type_symbol
  _atom_site_label
  _atom_site_symmetry_multiplicity
  _atom_site_fract_x
  _atom_site_fract_y
  _atom_site_fract_z
  _atom_site_occupancy
  H   H1        1.0  0.8595123114255862  0.9632211857053499  0.4874020322202101  1.0000
  H   H2        1.0  0.14048768847966533  0.46322118492307335  0.012597968208637147  1.0000
  H   H3        1.0  0.1404876889419804  0.03677881485933703  0.512597967848346  1.0000
  H   H4        1.0  0.8595123118879011  0.5367788146417474  0.9874020318599188  1.0000
  H   H5        1.0  0.6986675241324445  0.8815326098214775  0.31740586988169434  1.0000
  H   H6        1.0  0.3013324757499284  0.38153261003906713  0.18259412968024252  1.0000
  H   H7        1.0  0.30133247621224346  0.11846738974334323  0.6825941293199513  1.0000
  H   H8        1.0  0.6986675233941393  0.6184673895257535  0.8174058703935838  1.0000
  H   H9        1.0  0.46834461429900814  0.023536329192841234  0.23924048733299452  1.0000
  H   H10       1.0  0.5316553856062434  0.5235363289752516  0.2607595130958527  1.0000
  H   H11       1.0  0.5316553860685584  0.9764636713718454  0.7607595127355615  1.0000
  H   H12       1.0  0.46834461353782436  0.4764636715894352  0.7392404869779737  1.0000
  H   H13       1.0  0.418239376546175  0.24754798524645746  0.3332872968274413  1.0000
  H   H14       1.0  0.5817606233590765  0.7475479850288679  0.16671270360140594  1.0000
  H   H15       1.0  0.5817606225978926  0.7524520153182293  0.6667127032463851  1.0000
  H   H16       1.0  0.4182393770084901  0.252452015535819  0.83328729646715  1.0000
  H   H17       1.0  0.678043589487836  0.37488241358306934  0.5860752350670202  1.0000
  H   H18       1.0  0.3219564101414253  0.8748824133654797  0.9139247655134254  1.0000
  H   H19       1.0  0.3219564096562315  0.6251175869816175  0.4139247650068061  1.0000
  H   H20       1.0  0.6780435902261412  0.1251175871992071  0.08607523455513073  1.0000
  C   C1        1.0  0.9516011658883887  0.04692882564667482  0.8883171757859241  1.0000
  C   C2        1.0  0.048398833717994034  0.5469288254290852  0.611682823927611  1.0000
  C   C3        1.0  0.04839883323280024  0.9530711749180121  0.11168282342099177  1.0000
  C   C4        1.0  0.9516011666495726  0.4530711751356017  0.388317176140945  1.0000
  C   C5        1.0  0.8944835869199672  0.9254484359462556  0.9316971739702421  1.0000
  C   C6        1.0  0.10551641268641564  0.42544843616384526  0.5683028257432933  1.0000
  C   C7        1.0  0.10551641222410055  0.07455156361856506  0.06830282610358437  1.0000
  C   C8        1.0  0.894483587681151  0.5745515634009755  0.43169717432526283  1.0000
  C   C9        1.0  0.058506090187640004  0.12037326452301024  0.9587189894225131  1.0000
  C   C10       1.0  0.9414939106651204  0.6203732643054205  0.5412810111526624  1.0000
  C   C11       1.0  0.9414939101799266  0.8796267360416766  0.04128101064604308  1.0000
  C   C12       1.0  0.05850608970244621  0.3796267362592662  0.45871898891589374  1.0000
  C   C13       1.0  0.7626049323771763  0.024702629010792395  0.4493082374563125  1.0000
  C   C14       1.0  0.23739506750519643  0.5247026297930688  0.050691762105624365  1.0000
  C   C15       1.0  0.23739506799039023  0.9752973705540283  0.5506917626122436  1.0000
  C   C16       1.0  0.7626049328623702  0.47529737077161793  0.9493082379629317  1.0000
  C   C17       1.0  0.6707128027143223  0.9785028183047139  0.3548545943929736  1.0000
  C   C18       1.0  0.32928719719092925  0.4785028175224375  0.14514540603587361  1.0000
  C   C19       1.0  0.32928719642974535  0.02149718225997282  0.6451454056808528  1.0000
  C   C20       1.0  0.6707128031766373  0.5214971820423832  0.8548545940326825  1.0000
  C   C21       1.0  0.5435917908450243  0.05806834292678847  0.3118176166644716  1.0000
  C   C22       1.0  0.45640820906022717  0.5580683427091988  0.1881823837643756  1.0000
  C   C23       1.0  0.45640820829904327  0.9419316566380322  0.6881823834093547  1.0000
  C   C24       1.0  0.5435917913073395  0.44193165685562186  0.8118176163041804  1.0000
  C   C25       1.0  0.5158193834838436  0.1816111930028786  0.36301805523700237  1.0000
  C   C26       1.0  0.4841806164214079  0.6816111927852889  0.13698194519184495  1.0000
  C   C27       1.0  0.48418061688372294  0.818388806561942  0.6369819448315538  1.0000
  C   C28       1.0  0.5158193839461587  0.3183888067795318  0.863018054876711  1.0000
  C   C29       1.0  0.6164105786744065  0.2222771943196109  0.45605672801785535  1.0000
  C   C30       1.0  0.3835894212308449  0.7222771951018874  0.043943272410991926  1.0000
  C   C31       1.0  0.3835894216931599  0.7777228052452099  0.5439432720507008  1.0000
  C   C32       1.0  0.6164105779132227  0.2777228054627994  0.9560567276628344  1.0000
  C   C33       1.0  0.5996407981457847  0.3529575965887052  0.5104284111442038  1.0000
  C   C34       1.0  0.40035920148347676  0.8529575973709816  0.9895715894362418  1.0000
  C   C35       1.0  0.400359200998283  0.6470424029761155  0.4895715889296226  1.0000
  C   C36       1.0  0.5996407988840898  0.14704240319370515  0.010428410632314221  1.0000
  N   N1        1.0  0.7370002844997039  0.14336812622508174  0.49943138615125965  1.0000
  N   N2        1.0  0.2629997154055476  0.643368126007492  0.0005686142775876387  1.0000
  N   N3        1.0  0.2629997158678627  0.8566318733397389  0.5005686139172965  1.0000
  N   N4        1.0  0.7370002849620189  0.3566318735573286  0.9994313857909684  1.0000
  N   N5        1.0  0.49815627300439264  0.44072763508910867  0.46905959809861253  1.0000
  N   N6        1.0  0.5018437268779801  0.9407276358713852  0.03094040146332434  1.0000
  N   N7        1.0  0.501843727363174  0.559272364475712  0.5309404019699435  1.0000
  N   N8        1.0  0.4981562722660875  0.059272364693301625  0.9690595986105021  1.0000
  F   F1        1.0  0.7891115977798064  0.8499649861188422  0.8675412173833212  1.0000
  F   F2        1.0  0.21088840182657645  0.3499649863364318  0.6324587823302141  1.0000
  F   F3        1.0  0.21088840256488156  0.15003501444584466  0.1324587818183245  1.0000
  F   F4        1.0  0.7891115973174913  0.6500350142282549  0.36754121774361237  1.0000
  F   F5        1.0  0.11888646369655356  0.23856632100298883  0.9207427757889606  1.0000
  F   F6        1.0  0.8811135359327079  0.7385663207853992  0.5792572247914849  1.0000
  F   F7        1.0  0.8811135354475141  0.7614336785618319  0.07925722428486567  1.0000
  F   F8        1.0  0.11888646443485867  0.26143367877942153  0.42074277527707116  1.0000
  I   I1        1.0  0.8722732225058669  0.11610310135095946  0.7243058147325128  1.0000
  I   I2        1.0  0.1277267783240148  0.6161031011333697  0.7756941849757522  1.0000
  I   I3        1.0  0.12772677786169973  0.8838968992137273  0.2756941853360433  1.0000
  I   I4        1.0  0.8722732220206731  0.383896899431317  0.22430581422589355  1.0000
