data_image0
_chemical_formula_structural       H20C36N8F8I4
_chemical_formula_sum              "H20 C36 N8 F8 I4"
_cell_length_a       10.852679103782284
_cell_length_b       7.386363442017497
_cell_length_c       12.01303308971406
_cell_angle_alpha    90.0
_cell_angle_beta     101.29316607129773
_cell_angle_gamma    90.0

_space_group_name_H-M_alt    "P 1"
_space_group_IT_number       1

loop_
  _space_group_symop_operation_xyz
  'x, y, z'

loop_
  _atom_site_type_symbol
  _atom_site_label
  _atom_site_symmetry_multiplicity
  _atom_site_fract_x
  _atom_site_fract_y
  _atom_site_fract_z
  _atom_site_occupancy
  H   H1        1.0  0.10524238964997128  0.26421437224417815  0.570218543931869  1.0000
  H   H2        1.0  0.8947576109059494  0.7642143721076091  0.9297814562720782  1.0000
  H   H3        1.0  0.8947576108868843  0.7357856274826837  0.42978145577732374  1.0000
  H   H4        1.0  0.1052423898091311  0.2357856276192528  0.07021854428596282  1.0000
  H   H5        1.0  0.9445005719401856  0.29448558104065836  0.3930610039126989  1.0000
  H   H6        1.0  0.055499427833262865  0.7944855809040894  0.10693899614526521  1.0000
  H   H7        1.0  0.05549942767410303  0.7055144186862036  0.6069389957911714  1.0000
  H   H8        1.0  0.9445005719592504  0.2055144188227726  0.8930610044074533  1.0000
  H   H9        1.0  0.723408384234008  0.17946603093740102  0.3912636485861204  1.0000
  H   H10       1.0  0.2765916155394402  0.6794660308008319  0.10873635147184373  1.0000
  H   H11       1.0  0.2765916153802804  0.8205339687894609  0.6087363511177498  1.0000
  H   H12       1.0  0.7234083840748482  0.32053396892603  0.8912636482320264  1.0000
  H   H13       1.0  0.851084076220773  0.01822835567961497  0.7390066485619116  1.0000
  H   H14       1.0  0.14891592341258048  0.5182283555430459  0.7609933516367132  1.0000
  H   H15       1.0  0.14891592357174027  0.9817716454010932  0.260993351990807  1.0000
  H   H16       1.0  0.8510840762017081  0.4817716455376622  0.23900664806715707  1.0000
  H   H17       1.0  0.6345188046737056  0.9645590101174341  0.654418233017248  1.0000
  H   H18       1.0  0.36548119478142305  0.4645590102540031  0.8455817663325284  1.0000
  H   H19       1.0  0.36548119494058284  0.03544098960942787  0.34558176668662216  1.0000
  H   H20       1.0  0.6345188048328655  0.535440990826705  0.15441823337134186  1.0000
  C   C1        1.0  0.3802482802680241  0.029992944666081763  0.9289250414533454  1.0000
  C   C2        1.0  0.6197517201096716  0.5299929445295127  0.5710749579017533  1.0000
  C   C3        1.0  0.6197517193462643  0.9700070564146264  0.0710749582505248  1.0000
  C   C4        1.0  0.380248280427184  0.4700070551973492  0.42892504180743923  1.0000
  C   C5        1.0  0.4004809095907525  0.06047105906800598  0.04551802763496692  1.0000
  C   C6        1.0  0.5995190901826959  0.5604710602852832  0.45448197242299715  1.0000
  C   C7        1.0  0.599519090023536  0.939528940658856  0.9544819720689033  1.0000
  C   C8        1.0  0.40048090943159265  0.439528940795425  0.5455180272808731  1.0000
  C   C9        1.0  0.4823846474742679  0.9682009294747969  0.8850007667554827  1.0000
  C   C10       1.0  0.5176153530816526  0.46820092961136583  0.6149992334484643  1.0000
  C   C11       1.0  0.5176153532408125  0.03179907025206513  0.11499923380255822  1.0000
  C   C12       1.0  0.4823846465326358  0.5317990701154961  0.38500076625540586  1.0000
  C   C13       1.0  0.009320499944626389  0.2175557231395971  0.5672070198034901  1.0000
  C   C14       1.0  0.990679499688727  0.7175557230030281  0.9327929803951344  1.0000
  C   C15       1.0  0.9906794996696621  0.782444277941111  0.43279297990038007  1.0000
  C   C16       1.0  0.009320499925561406  0.2824442767238339  0.06720701930873574  1.0000
  C   C17       1.0  0.9184844541463768  0.23473996556097068  0.4679459338469763  1.0000
  C   C18       1.0  0.08151554562707142  0.7347399654244017  0.03205406621098783  1.0000
  C   C19       1.0  0.0815155454679116  0.7652600341658913  0.532054065856894  1.0000
  C   C20       1.0  0.918484453987217  0.2652600343024603  0.9679459334928825  1.0000
  C   C21       1.0  0.7977548091394804  0.17156345608331877  0.466711943705029  1.0000
  C   C22       1.0  0.20224519155653498  0.6715634559467498  0.03328805635825748  1.0000
  C   C23       1.0  0.20224519139737515  0.8284365436435431  0.5332880560041636  1.0000
  C   C24       1.0  0.7977548089803206  0.3284365437801122  0.9667119433509351  1.0000
  C   C25       1.0  0.7710971956060808  0.09336410337962442  0.5660533491682461  1.0000
  C   C26       1.0  0.22890280477161487  0.5933641032430553  0.9339466501868525  1.0000
  C   C27       1.0  0.2289028049307747  0.9066358977010837  0.43394665054094644  1.0000
  C   C28       1.0  0.7710971948426735  0.40663589783765275  0.06605334951701759  1.0000
  C   C29       1.0  0.8690576673858733  0.08105492028652085  0.6613340387968729  1.0000
  C   C30       1.0  0.1309423329918223  0.5810549201499517  0.8386659605582258  1.0000
  C   C31       1.0  0.13094233315098217  0.9189450794403411  0.3386659609123198  1.0000
  C   C32       1.0  0.8690576675450333  0.41894507957691013  0.1613340391509667  1.0000
  C   C33       1.0  0.6475330285580136  0.025211000171030968  0.5740955157872404  1.0000
  C   C34       1.0  0.3524669710753398  0.525211000034462  0.9259044844113842  1.0000
  C   C35       1.0  0.35246697105627484  0.9747890009096772  0.42590448391662983  1.0000
  C   C36       1.0  0.6475330287171734  0.4747890010462462  0.07409551614133425  1.0000
  N   N1        1.0  0.985462503997398  0.14128564999435725  0.6623474167887671  1.0000
  N   N2        1.0  0.014537496558522692  0.6412856498577881  0.83765258341518  1.0000
  N   N3        1.0  0.014537496539457682  0.8587143497325047  0.33765258292042555  1.0000
  N   N4        1.0  0.9854625041565578  0.35871434986907375  0.16234741714286097  1.0000
  N   N5        1.0  0.5548505794215652  0.03641519837352228  0.48820194772152303  1.0000
  N   N6        1.0  0.4451494201736583  0.5364151982369533  0.011798051487592777  1.0000
  N   N7        1.0  0.4451494201927233  0.9635848027071858  0.5117980519823472  1.0000
  N   N8        1.0  0.5548505794406302  0.4635848014899087  0.9882019482162774  1.0000
  F   F1        1.0  0.30515584698503356  0.12018915356235418  0.094815216855266  1.0000
  F   F2        1.0  0.6948441537109817  0.6201891534257852  0.4051847832080205  1.0000
  F   F3        1.0  0.6948441535518218  0.8798108461645078  0.9051847828539266  1.0000
  F   F4        1.0  0.3051558468258738  0.37981084630107675  0.5948152165011722  1.0000
  F   F5        1.0  0.46909405368841933  0.933424366959774  0.7724173931838438  1.0000
  F   F6        1.0  0.5309059459449341  0.4334243670963431  0.7275826070147808  1.0000
  F   F7        1.0  0.5309059459258691  0.06657563412093406  0.22758260652002635  1.0000
  F   F8        1.0  0.4690940538475792  0.5665756339843651  0.2724173935379377  1.0000
  I   I1        1.0  0.20443572564494975  0.07727514824860793  0.8211552294487312  1.0000
  I   I2        1.0  0.7955642739884038  0.577275148112039  0.6788447707498935  1.0000
  I   I3        1.0  0.7955642741475636  0.922724851478254  0.1788447711039874  1.0000
  I   I4        1.0  0.20443572562588472  0.42272485161482304  0.3211552289539767  1.0000
