data_image0
_chemical_formula_structural       H16C18N8F4S4I2
_chemical_formula_sum              "H16 C18 N8 F4 S4 I2"
_cell_length_a       6.196304182153469
_cell_length_b       8.96898987304584
_cell_length_c       12.67565840577708
_cell_angle_alpha    85.16910001284991
_cell_angle_beta     81.46753211657172
_cell_angle_gamma    73.0486168149786

_space_group_name_H-M_alt    "P 1"
_space_group_IT_number       1

loop_
  _space_group_symop_operation_xyz
  'x, y, z'

loop_
  _atom_site_type_symbol
  _atom_site_label
  _atom_site_symmetry_multiplicity
  _atom_site_fract_x
  _atom_site_fract_y
  _atom_site_fract_z
  _atom_site_occupancy
  H   H1        1.0  0.6400234588485985  0.1925559754309021  0.35616116800873504  1.0000
  H   H2        1.0  0.3599765415469439  0.8074440243011548  0.6438388318676066  1.0000
  H   H3        1.0  0.8755855590504125  0.24540027601865136  0.15105656886533902  1.0000
  H   H4        1.0  0.12441444134513024  0.7545997237134057  0.8489434310110027  1.0000
  H   H5        1.0  0.39786240701180525  0.5305750216066715  0.19124584968923733  1.0000
  H   H6        1.0  0.6021375933837371  0.4694249781253856  0.8087541501871044  1.0000
  H   H7        1.0  0.5342101469008997  0.4214067244951631  0.29836973352636137  1.0000
  H   H8        1.0  0.4657898530078589  0.5785932764025307  0.7016302663492233  1.0000
  H   H9        1.0  0.2557436198521668  0.5492370717028915  0.3238640159064492  1.0000
  H   H10       1.0  0.7442563789273399  0.450762928032562  0.6761359839723715  1.0000
  H   H11       1.0  0.8731007224194691  0.0009957225437001959  0.43528218940156505  1.0000
  H   H12       1.0  0.12689927797607337  0.9990042771883568  0.5647178104747765  1.0000
  H   H13       1.0  0.6167034927480775  0.7164309962925409  0.3987237503358033  1.0000
  H   H14       1.0  0.38329650764746503  0.2835690034395161  0.6012762495405383  1.0000
  H   H15       1.0  0.8145556343470979  0.5549916426391776  0.45400068923867914  1.0000
  H   H16       1.0  0.18544436604844466  0.4450083570928794  0.5459993106376625  1.0000
  C   C1        1.0  0.6314293956673834  0.85963609642876  0.04750000266989135  1.0000
  C   C2        1.0  0.36857060472815906  0.14036390330329698  0.9524999972064503  1.0000
  C   C3        1.0  0.6784324404732497  0.0015466657285331993  0.05184372014222059  1.0000
  C   C4        1.0  0.3215675599222929  0.9984533340035237  0.9481562797341212  1.0000
  C   C5        1.0  0.5506208109702805  0.1391880954122963  0.005686459782176038  1.0000
  C   C6        1.0  0.44937918942526206  0.8608119043197607  0.9943135400941656  1.0000
  C   C7        1.0  0.8786251710727071  0.7689679982392875  0.4508676007610759  1.0000
  C   C8        1.0  0.12137482910635193  0.23103200144335076  0.5491323999137534  1.0000
  C   C9        1.0  0.5444867771312784  0.1140451019650988  0.338605852391292  1.0000
  C   C10       1.0  0.4555132216482283  0.8859548977703547  0.6613941474875289  1.0000
  C   C11       1.0  0.352200341404649  0.18144662788487476  0.28281947627209514  1.0000
  C   C12       1.0  0.6477996589908935  0.8185533718471822  0.7171805236042466  1.0000
  C   C13       1.0  0.27180647394939267  0.3381747869653802  0.2512148276986583  1.0000
  C   C14       1.0  0.7281935264461498  0.6618252127666768  0.7487851721776834  1.0000
  C   C15       1.0  0.018406170354526387  0.24534374520168079  0.19142306310075247  1.0000
  C   C16       1.0  0.9815938284249804  0.7546562545337727  0.8085769367780683  1.0000
  C   C17       1.0  0.370688060299473  0.4657221851846285  0.26713481320789356  1.0000
  C   C18       1.0  0.6293119396092857  0.5342778157130653  0.7328651866676911  1.0000
  N   N1        1.0  0.7590571047503051  0.6724428442567292  0.4354783059093961  1.0000
  N   N2        1.0  0.2409428956452373  0.3275571554753279  0.5645216939669455  1.0000
  N   N3        1.0  0.7944723420833077  0.9209641819342408  0.41854183228478675  1.0000
  N   N4        1.0  0.20552765831223468  0.07903581779781625  0.5814581675915549  1.0000
  N   N5        1.0  0.6061638388950908  0.9673234986971632  0.36796062183243455  1.0000
  N   N6        1.0  0.39383616128396826  0.03267650098547517  0.6320393788423947  1.0000
  N   N7        1.0  0.08194072543944124  0.370935177190235  0.20012072496415861  1.0000
  N   N8        1.0  0.9180592747396177  0.6290648224924034  0.7998792757106705  1.0000
  F   F1        1.0  0.8534541509236117  0.007368749776852147  0.1032432155844058  1.0000
  F   F2        1.0  0.14654584947193097  0.9926312499552048  0.8967567842919358  1.0000
  F   F3        1.0  0.605656296090777  0.27336679843701955  0.014000352972696943  1.0000
  F   F4        1.0  0.39434370430476556  0.7266332012950374  0.9859996469036447  1.0000
  S   S1        1.0  0.1240484026850992  0.716150705147346  0.5060963802909224  1.0000
  S   S2        1.0  0.8759515972236593  0.28384929575034784  0.49390361958466217  1.0000
  S   S3        1.0  0.1840362423616262  0.07635450793545209  0.24536774898664768  1.0000
  S   S4        1.0  0.8159637580339164  0.9236454917966048  0.754632250889694  1.0000
  I   I1        1.0  0.8321352464057264  0.6529544799773962  0.11676336688319618  1.0000
  I   I2        1.0  0.1678647539898161  0.3470455197546607  0.8832366329931455  1.0000
