data_image0
_chemical_formula_structural       H14C30N6F12S4I6
_chemical_formula_sum              "H14 C30 N6 F12 S4 I6"
_cell_length_a       8.90187503999745
_cell_length_b       10.282081363814314
_cell_length_c       12.145276648994507
_cell_angle_alpha    76.06588447110741
_cell_angle_beta     80.48505837737821
_cell_angle_gamma    75.80485295973664

_space_group_name_H-M_alt    "P 1"
_space_group_IT_number       1

loop_
  _space_group_symop_operation_xyz
  'x, y, z'

loop_
  _atom_site_type_symbol
  _atom_site_label
  _atom_site_symmetry_multiplicity
  _atom_site_fract_x
  _atom_site_fract_y
  _atom_site_fract_z
  _atom_site_occupancy
  H   H1        1.0  0.8608379695744118  0.6634976530115023  0.21888326965103497  1.0000
  H   H2        1.0  0.1391620296585382  0.3365023472148133  0.7811167300126344  1.0000
  H   H3        1.0  0.6960137314305425  0.7907501946959022  0.24715188299149496  1.0000
  H   H4        1.0  0.30398626892431085  0.2092498055326965  0.7528481166756935  1.0000
  H   H5        1.0  0.02238295056604373  0.8634695292322984  0.9764067634914194  1.0000
  H   H6        1.0  0.977617049654207  0.13653047077543298  0.023593237029536834  1.0000
  H   H7        1.0  0.20209912971677768  0.6973137084895301  0.920616299136918  1.0000
  H   H8        1.0  0.7979008695161723  0.3026862917367855  0.0793837005267515  1.0000
  H   H9        1.0  0.4043089374079162  0.13256182486701815  0.10565370397976948  1.0000
  H   H10       1.0  0.5956910628123349  0.8674381751407131  0.8943462965411868  1.0000
  H   H11       1.0  0.5553710023227132  0.25115237867749546  0.9174205135363644  1.0000
  H   H12       1.0  0.4446289969102369  0.7488476215488201  0.08257948612730494  1.0000
  H   H13       1.0  0.42750450273414253  0.5150495512025195  0.8588363556485233  1.0000
  H   H14       1.0  0.5724954976207107  0.48495044902607937  0.14116364401866527  1.0000
  C   C1        1.0  0.3289700435196554  0.7435069105638583  0.5978995148112417  1.0000
  C   C2        1.0  0.671029956835198  0.2564930896647405  0.40210048485594696  1.0000
  C   C3        1.0  0.4159906822224738  0.7581100929631353  0.490822664697334  1.0000
  C   C4        1.0  0.5840093181323793  0.2418899072654635  0.5091773349698547  1.0000
  C   C5        1.0  0.4055716368670983  0.6816477326767885  0.4130435907004052  1.0000
  C   C6        1.0  0.5944283633531525  0.3183522673309429  0.586956409820551  1.0000
  C   C7        1.0  0.30785622866894785  0.5886211412830022  0.4385159329648479  1.0000
  C   C8        1.0  0.6921437716859056  0.4113788589455964  0.5614840667023407  1.0000
  C   C9        1.0  0.2239488634923249  0.5715762305023039  0.5467009624610621  1.0000
  C   C10       1.0  0.7760511367279256  0.4284237695054275  0.4532990380598941  1.0000
  C   C11       1.0  0.2338234324308291  0.6481557820774135  0.6244140869606548  1.0000
  C   C12       1.0  0.7661765677894218  0.3518442179303177  0.37558591356030147  1.0000
  C   C13       1.0  0.9368099617499326  0.019968260174988303  0.6115903182153892  1.0000
  C   C14       1.0  0.06319003860492062  0.9800317400536105  0.3884096814517995  1.0000
  C   C15       1.0  0.036836908767457  0.10004593291332622  0.5430526443519356  1.0000
  C   C16       1.0  0.9631630914527939  0.8999540670944051  0.45694735616902066  1.0000
  C   C17       1.0  0.9007899824728696  0.9201274158019105  0.5663407146010377  1.0000
  C   C18       1.0  0.0992100177473811  0.07987258420582062  0.43365928591991854  1.0000
  C   C19       1.0  0.8435214251446524  0.8461599317937397  0.1054100278451878  1.0000
  C   C20       1.0  0.15647857437680276  0.15384006743067916  0.8945899718134047  1.0000
  C   C21       1.0  0.16495806145400388  0.6237098690460828  0.9959645922672735  1.0000
  C   C22       1.0  0.8350419389008493  0.37629013118251603  0.004035407399915214  1.0000
  C   C23       1.0  0.255224696596012  0.4867480943247874  0.007295063394758912  1.0000
  C   C24       1.0  0.7447753037588413  0.5132519059038115  0.9927049362724297  1.0000
  C   C25       1.0  0.3772433481071919  0.23990670066703743  0.06323276843291847  1.0000
  C   C26       1.0  0.6227566524015639  0.7600932983387972  0.936767232082961  1.0000
  C   C27       1.0  0.4538929063165024  0.3041053451223862  0.9650497901000892  1.0000
  C   C28       1.0  0.5461070939037485  0.6958946548853452  0.03495021042086707  1.0000
  C   C29       1.0  0.38459605184720747  0.44503436124550916  0.9330752268065159  1.0000
  C   C30       1.0  0.6154039485076459  0.5549656389830896  0.06692477286067282  1.0000
  N   N1        1.0  0.796904015642329  0.7609227952340735  0.19897832660871842  1.0000
  N   N2        1.0  0.20309598500102938  0.23907720399262872  0.8010216730533933  1.0000
  N   N3        1.0  0.9738894933288355  0.7958739665988397  0.04117200855741097  1.0000
  N   N4        1.0  0.026110506891415492  0.20412603340889152  0.9588279919635452  1.0000
  N   N5        1.0  0.046247556313986256  0.6612382096047829  0.0677683334005962  1.0000
  N   N6        1.0  0.9537524439062646  0.3387617904029485  0.93223166712036  1.0000
  F   F1        1.0  0.5124337922137453  0.8473138280470506  0.4600720214239276  1.0000
  F   F2        1.0  0.48756620701920467  0.15268617217926495  0.5399279782397418  1.0000
  F   F3        1.0  0.49423608468314023  0.6988497941898447  0.31020911267043977  1.0000
  F   F4        1.0  0.5057639145498098  0.3011502060364709  0.6897908869932295  1.0000
  F   F5        1.0  0.1311956467380507  0.4793961972050138  0.5782171853598863  1.0000
  F   F6        1.0  0.8688043534822002  0.5206038028027177  0.4217828151610699  1.0000
  F   F7        1.0  0.14758128706398402  0.6272057101072759  0.727704951601138  1.0000
  F   F8        1.0  0.8524187131562667  0.3727942899004556  0.27229504891981815  1.0000
  F   F9        1.0  0.07570434816846626  0.1988429304270418  0.5817487360524742  1.0000
  F   F10       1.0  0.9242956520517844  0.8011570695806896  0.41825126446848193  1.0000
  F   F11       1.0  0.8038299364268854  0.8399200536327376  0.6287262233663689  1.0000
  F   F12       1.0  0.19617006379336557  0.1600799463749937  0.3712737771545874  1.0000
  S   S1        1.0  0.7468819238635587  0.011143584995874247  0.06245154951169373  1.0000
  S   S2        1.0  0.25311807523478874  0.9888564150095737  0.9375484510057432  1.0000
  S   S3        1.0  0.2186109052628766  0.3497864942593933  0.11611402867698703  1.0000
  S   S4        1.0  0.7813890942585786  0.6502135049650256  0.8838859709816056  1.0000
  I   I1        1.0  0.33441856133462355  0.8583951871825154  0.7191021716376617  1.0000
  I   I2        1.0  0.6655814381868316  0.14160481204190348  0.280897828020931  1.0000
  I   I3        1.0  0.28149846083809865  0.48286189504136023  0.31881801816274485  1.0000
  I   I4        1.0  0.7185015395167547  0.5171381051872386  0.6811819815044438  1.0000
  I   I5        1.0  0.8529115020208468  0.03988830849887609  0.7806724197596121  1.0000
  I   I6        1.0  0.1470884983340064  0.9601116917297228  0.21932757990757668  1.0000
