data_image0
_chemical_formula_structural       H16C20N8F4S2I2
_chemical_formula_sum              "H16 C20 N8 F4 S2 I2"
_cell_length_a       7.54599961633663
_cell_length_b       8.749212644563036
_cell_length_c       10.317288609478878
_cell_angle_alpha    87.22650070399811
_cell_angle_beta     70.6460530450096
_cell_angle_gamma    74.44720605124051

_space_group_name_H-M_alt    "P 1"
_space_group_IT_number       1

loop_
  _space_group_symop_operation_xyz
  'x, y, z'

loop_
  _atom_site_type_symbol
  _atom_site_label
  _atom_site_symmetry_multiplicity
  _atom_site_fract_x
  _atom_site_fract_y
  _atom_site_fract_z
  _atom_site_occupancy
  H   H1        1.0  0.8432175650575168  0.47103831742324376  0.4343069906640556  1.0000
  H   H2        1.0  0.1567824353074531  0.5289616836307302  0.5656930090337652  1.0000
  H   H3        1.0  0.03852878044056357  0.28941791661944755  0.39129856401037405  1.0000
  H   H4        1.0  0.96147122030013  0.710582083247937  0.6087014356834557  1.0000
  H   H5        1.0  0.865071159037606  0.5820613404694459  0.10292955459669255  1.0000
  H   H6        1.0  0.13492884170308733  0.4179386593979388  0.8970704450971372  1.0000
  H   H7        1.0  0.6263344099731831  0.8151311139328349  0.17410211050922778  1.0000
  H   H8        1.0  0.37366559027881346  0.1848688859827935  0.8258978902128965  1.0000
  H   H9        1.0  0.38151062992182383  0.0655713551090338  0.24819203663848696  1.0000
  H   H10       1.0  0.6184893694979227  0.9344286447535644  0.7518079630493005  1.0000
  H   H11       1.0  0.0006918994093095612  0.1649270684010578  0.6467589086730253  1.0000
  H   H12       1.0  0.9993081008426871  0.8350729315145705  0.3532410920490989  1.0000
  H   H13       1.0  0.15965787454284722  0.9061166601180073  0.7255364564966802  1.0000
  H   H14       1.0  0.8403421243882019  0.09388333979283464  0.274463544219402  1.0000
  H   H15       1.0  0.4430416180986552  0.718312240921038  0.553431338771964  1.0000
  H   H16       1.0  0.5569583813210911  0.2816877589415602  0.4465686609158234  1.0000
  C   C1        1.0  0.38372222828448826  0.6593715332583014  0.01858826208368557  1.0000
  C   C2        1.0  0.6162777724562053  0.34062846660908314  0.9814117376101441  1.0000
  C   C3        1.0  0.3927512027442398  0.5656284112756272  0.13062542742463853  1.0000
  C   C4        1.0  0.6072487979964539  0.4343715885917573  0.8693745722691912  1.0000
  C   C5        1.0  0.5079959422182604  0.40962586175112614  0.11252820704578151  1.0000
  C   C6        1.0  0.49200405814670956  0.5903741393028477  0.8874717926520393  1.0000
  C   C7        1.0  0.9641603611017736  0.41600900402799224  0.23210200941676123  1.0000
  C   C8        1.0  0.03583963915022295  0.583990995887636  0.7678979913053631  1.0000
  C   C9        1.0  0.5996003367490099  0.7767242325744756  0.2803640923596528  1.0000
  C   C10       1.0  0.4003996639916837  0.22327576729290888  0.7196359073341769  1.0000
  C   C11       1.0  0.4377409185426297  0.8777717176120382  0.3870842079083071  1.0000
  C   C12       1.0  0.5622590808771166  0.12222828225055996  0.6129157917794804  1.0000
  C   C13       1.0  0.33814002898961004  0.025870694211463128  0.35329651687949415  1.0000
  C   C14       1.0  0.6618599712623864  0.9741293057041653  0.6467034838426302  1.0000
  C   C15       1.0  0.12605492776011462  0.08158871140439744  0.5752131225522049  1.0000
  C   C16       1.0  0.8739450726048552  0.9184112896495763  0.4247868771456159  1.0000
  C   C17       1.0  0.2149563699463169  0.9369198493903171  0.6187997494688767  1.0000
  C   C18       1.0  0.7850436307943768  0.06308015047706737  0.3812002502249529  1.0000
  C   C19       1.0  0.3718103377111076  0.8332477145222617  0.5237583690904147  1.0000
  C   C20       1.0  0.628189663029586  0.166752285345123  0.4762416306034151  1.0000
  N   N1        1.0  0.947189851207898  0.3892967528795208  0.3629002824203522  1.0000
  N   N2        1.0  0.05281014953279582  0.6107032469878638  0.6370997172734774  1.0000
  N   N3        1.0  0.8445338555711618  0.5521294659769292  0.2048477028783319  1.0000
  N   N4        1.0  0.15546614384858462  0.4478705338856689  0.7951522968094556  1.0000
  N   N5        1.0  0.7045035402910934  0.6456693407016044  0.3101571265567919  1.0000
  N   N6        1.0  0.295496459960903  0.35433065921402396  0.6898428741653324  1.0000
  N   N7        1.0  0.1859438390156888  0.12534449044598794  0.44463828239703085  1.0000
  N   N8        1.0  0.814056161349281  0.8746555106079859  0.55536171730079  1.0000
  F   F1        1.0  0.28647123379115  0.624295272275943  0.2608511353556667  1.0000
  F   F2        1.0  0.7135287660851226  0.37570472882627454  0.7391488653704488  1.0000
  F   F3        1.0  0.5088478476679245  0.3243653855061703  0.22541729249395595  1.0000
  F   F4        1.0  0.49115215307276927  0.6756346143612143  0.7745827071998738  1.0000
  S   S1        1.0  0.12459440077369933  0.2927494077898443  0.09731480166368008  1.0000
  S   S2        1.0  0.8754055981573499  0.7072505921209975  0.9026851990524022  1.0000
  I   I1        1.0  0.237405665809547  0.9015641400040735  0.04749269774512156  1.0000
  I   I2        1.0  0.7625943331215022  0.0984358599067684  0.9525073029709604  1.0000
