data_image0
_chemical_formula_structural       H52C52N8O8Br4
_chemical_formula_sum              "H52 C52 N8 O8 Br4"
_cell_length_a       13.413203270301535
_cell_length_b       5.581964044914167
_cell_length_c       18.21349891845938
_cell_angle_alpha    90.0
_cell_angle_beta     109.41866627054593
_cell_angle_gamma    90.0

_space_group_name_H-M_alt    "P 1"
_space_group_IT_number       1

loop_
  _space_group_symop_operation_xyz
  'x, y, z'

loop_
  _atom_site_type_symbol
  _atom_site_label
  _atom_site_symmetry_multiplicity
  _atom_site_fract_x
  _atom_site_fract_y
  _atom_site_fract_z
  _atom_site_occupancy
  H   H1        1.0  0.43252340918876464  0.5693823185578889  0.27574021625345857  1.0000
  H   H2        1.0  0.5674765903201174  0.06938231899807146  0.2242597832517654  1.0000
  H   H3        1.0  0.5674765905777769  0.4306176823532301  0.7242597833174422  1.0000
  H   H4        1.0  0.432523409446424  0.9306176819130475  0.7757402163191354  1.0000
  H   H5        1.0  0.5537676152362142  0.7318173168316806  0.30022397631526054  1.0000
  H   H6        1.0  0.44623238527935866  0.23181731727186314  0.1997760237741149  1.0000
  H   H7        1.0  0.44623238479058763  0.2681826822879543  0.6997760238377966  1.0000
  H   H8        1.0  0.5537676147474433  0.7681826836392559  0.8002239763789423  1.0000
  H   H9        1.0  0.5798513351711371  0.0976301899501719  0.38113116236103467  1.0000
  H   H10       1.0  0.4201486645980054  0.5976301913014734  0.11886883772634568  1.0000
  H   H11       1.0  0.42014866485566477  0.902369809169463  0.6188688377920224  1.0000
  H   H12       1.0  0.5798513354287964  0.4023698096096455  0.8811311624267115  1.0000
  H   H13       1.0  0.5029617082279998  0.36882501632660686  0.455329677663674  1.0000
  H   H14       1.0  0.49703829228757307  0.8688250158864244  0.04467032242570154  1.0000
  H   H15       1.0  0.4970382925452323  0.6311749845845122  0.5446703224913783  1.0000
  H   H16       1.0  0.5029617077392289  0.13117498502469468  0.9553296777273556  1.0000
  H   H17       1.0  0.22248536080273265  0.9256645149314021  0.3876278802817655  1.0000
  H   H18       1.0  0.7775146397128403  0.42566451537158484  0.11237211980761007  1.0000
  H   H19       1.0  0.7775146392240693  0.0743354841882326  0.6123721198712917  1.0000
  H   H20       1.0  0.22248536031396163  0.5743354837480501  0.8876278803454472  1.0000
  H   H21       1.0  0.2743311741593597  0.6340884573100876  0.3041831106353605  1.0000
  H   H22       1.0  0.7256688256097829  0.1340884577502701  0.19581688945201986  1.0000
  H   H23       1.0  0.7256688258674423  0.36591154180954727  0.6958168895176967  1.0000
  H   H24       1.0  0.2743311741567587  0.865911543160849  0.804183110118881  1.0000
  H   H25       1.0  0.27211651035840567  0.9984895988497368  0.1419307893170231  1.0000
  H   H26       1.0  0.7278834901571671  0.4984895992899193  0.35806921077235243  1.0000
  H   H27       1.0  0.7278834904148266  0.001510402061382257  0.8580692108380292  1.0000
  H   H28       1.0  0.27211650986963465  0.5015104016211998  0.6419307893807047  1.0000
  H   H29       1.0  0.9544247173384529  0.7207957499593439  0.06645617223117979  1.0000
  H   H30       1.0  0.04557528317712006  0.22079575039952656  0.4335438278581958  1.0000
  H   H31       1.0  0.0455752826883491  0.27920424916029085  0.9335438279218775  1.0000
  H   H32       1.0  0.9544247168496818  0.7792042505115924  0.5664561722948614  1.0000
  H   H33       1.0  0.9046891666680986  0.020986580898301244  0.14734606889913585  1.0000
  H   H34       1.0  0.09531083284078345  0.5209865822496028  0.3526539306060881  1.0000
  H   H35       1.0  0.09531083309844282  0.9790134182213336  0.8526539306717649  1.0000
  H   H36       1.0  0.9046891669257581  0.47901341866151614  0.6473460689648127  1.0000
  H   H37       1.0  0.03727851342616755  0.3192615960369203  0.22381469192595563  1.0000
  H   H38       1.0  0.9627214870894053  0.8192615973882218  0.2761853081634199  1.0000
  H   H39       1.0  0.9627214866006343  0.6807384030827146  0.7761853082271015  1.0000
  H   H40       1.0  0.03727851368382694  0.1807384035228972  0.7238146919916324  1.0000
  H   H41       1.0  0.23276317639405536  0.6390533871765296  0.06320044469850311  1.0000
  H   H42       1.0  0.7672368241215175  0.139053385825228  0.43679955539087245  1.0000
  H   H43       1.0  0.7672368236327465  0.3609466137345894  0.9367995554545541  1.0000
  H   H44       1.0  0.23276317590528436  0.8609466132944068  0.5632004447621848  1.0000
  H   H45       1.0  0.11309782868725948  0.701422749859401  0.9862164842422023  1.0000
  H   H46       1.0  0.886902170590511  0.20142275029958362  0.5137835153923801  1.0000
  H   H47       1.0  0.886902171079282  0.2985772492602338  0.013783515328698334  1.0000
  H   H48       1.0  0.11309782917603055  0.7985772488200513  0.48621648417852076  1.0000
  H   H49       1.0  0.11654370376196574  0.47528464150843436  0.05543645062001124  1.0000
  H   H50       1.0  0.8834562960071768  0.9752846428597359  0.4445635494673691  1.0000
  H   H51       1.0  0.8834562962648362  0.5247153576112005  0.9445635495330461  1.0000
  H   H52       1.0  0.1165437040196251  0.024715358051383043  0.555436450685688  1.0000
  C   C1        1.0  0.44280947969726553  0.8622990136214705  0.34522549988899964  1.0000
  C   C2        1.0  0.557190520071877  0.3622990140616531  0.1547745001983807  1.0000
  C   C3        1.0  0.5571905203295364  0.13770098549816426  0.6547745002640576  1.0000
  C   C4        1.0  0.44280947995492487  0.6377009850579817  0.8452254999546764  1.0000
  C   C5        1.0  0.5013471342468666  0.06394028107816094  0.38428246515811154  1.0000
  C   C6        1.0  0.49865286526201547  0.5639402806379784  0.11571753434711238  1.0000
  C   C7        1.0  0.49865286551967486  0.936059719832958  0.6157175344127892  1.0000
  C   C8        1.0  0.5013471345045261  0.4360597184816565  0.8842824652237884  1.0000
  C   C9        1.0  0.4580002681668448  0.21437378140947885  0.4255149970306101  1.0000
  C   C10       1.0  0.5419997316022976  0.7143737827607805  0.07448500305677025  1.0000
  C   C11       1.0  0.5419997318599571  0.785626217710156  0.5744850031224471  1.0000
  C   C12       1.0  0.4580002684245043  0.28562621815033856  0.925514997096287  1.0000
  C   C13       1.0  0.35667185308096017  0.1652568562924494  0.4282776142040434  1.0000
  C   C14       1.0  0.6433281466881824  0.6652568576437509  0.07172238588333692  1.0000
  C   C15       1.0  0.6433281466855814  0.8347431428271854  0.5717223853668574  1.0000
  C   C16       1.0  0.35667185333861956  0.33474314326736804  0.9282776142697202  1.0000
  C   C17       1.0  0.3020386216728713  0.9692340986913671  0.38820512335512053  1.0000
  C   C18       1.0  0.6979613788427016  0.4692340991315497  0.11179487673425498  1.0000
  C   C19       1.0  0.6979613783539305  0.03076590221975189  0.6117948767979366  1.0000
  C   C20       1.0  0.3020386209238399  0.5307659017795694  0.8882051228366458  1.0000
  C   C21       1.0  0.24275371576068347  0.35513987084997123  0.2299678456681347  1.0000
  C   C22       1.0  0.7572462840084591  0.8551398704097887  0.27003215441924566  1.0000
  C   C23       1.0  0.7572462842661184  0.6448601300611477  0.7700321544849225  1.0000
  C   C24       1.0  0.2427537160183429  0.14486013050133034  0.7299678457338116  1.0000
  C   C25       1.0  0.16240030602656266  0.17705271335462303  0.18655877675079346  1.0000
  C   C26       1.0  0.8375996934823194  0.6770527129144404  0.3134412227544305  1.0000
  C   C27       1.0  0.8375996937399789  0.8229472875564959  0.8134412228201073  1.0000
  C   C28       1.0  0.16240030628422208  0.32294728799667854  0.6865587768164704  1.0000
  C   C29       1.0  0.19074575056455542  0.002588311190066464  0.14173205337100747  1.0000
  C   C30       1.0  0.8092542489443267  0.5025883107498839  0.3582679461342165  1.0000
  C   C31       1.0  0.809254249201986  0.9974116897210525  0.8582679461998933  1.0000
  C   C32       1.0  0.19074575082221482  0.49741168836975097  0.6417320534366844  1.0000
  C   C33       1.0  0.11712540765203949  0.8366800094771687  0.09771812958776942  1.0000
  C   C34       1.0  0.8828745928635333  0.3366800099173513  0.40228187050160613  1.0000
  C   C35       1.0  0.8828745931211929  0.1633199896424661  0.9022818705672829  1.0000
  C   C36       1.0  0.11712540716326848  0.6633199909937677  0.5977181296514511  1.0000
  C   C37       1.0  0.013692322717044087  0.8479066976994079  0.1002487752659309  1.0000
  C   C38       1.0  0.9863076770520983  0.3479066981395904  0.3997512248214494  1.0000
  C   C39       1.0  0.9863076773097579  0.15209330321171116  0.8997512248871263  1.0000
  C   C40       1.0  0.013692322714443053  0.6520933027715285  0.6002487747494513  1.0000
  C   C41       1.0  0.9850090283618825  0.018854180921478565  0.14536877521563082  1.0000
  C   C42       1.0  0.014990971146999502  0.5188541804812961  0.35463122428959315  1.0000
  C   C43       1.0  0.014990971404658842  0.9811458199896403  0.85463122435527  1.0000
  C   C44       1.0  0.985009028619542  0.481145820429823  0.6453687752813078  1.0000
  C   C45       1.0  0.05903540578753938  0.18460520377928114  0.18865611347834332  1.0000
  C   C46       1.0  0.9409645939816031  0.6846052051305827  0.31134388660903706  1.0000
  C   C47       1.0  0.9409645942392625  0.8153947953403536  0.8113438866747139  1.0000
  C   C48       1.0  0.05903540604519883  0.3153947957805363  0.6886561135440202  1.0000
  C   C49       1.0  0.14675566616673136  0.6533193282251026  0.0482070107981717  1.0000
  C   C50       1.0  0.8532443336024111  0.15331932866528522  0.45179298928920864  1.0000
  C   C51       1.0  0.8532443338600705  0.3466806726860163  0.9517929893548854  1.0000
  C   C52       1.0  0.14675566616413038  0.8466806722458338  0.5482070102816922  1.0000
  N   N1        1.0  0.3440408086004451  0.8223865673557179  0.34779591930758386  1.0000
  N   N2        1.0  0.6559591916548674  0.32238656779590047  0.15220408019963524  1.0000
  N   N3        1.0  0.6559591911660965  0.17761343176391692  0.6522040802633169  1.0000
  N   N4        1.0  0.3440408088581045  0.6776134331152185  0.8477959193732607  1.0000
  N   N5        1.0  0.4810956760468928  0.7054644795836467  0.30532764448421307  1.0000
  N   N6        1.0  0.5189043244686801  0.20546448002382925  0.19467235560516247  1.0000
  N   N7        1.0  0.5189043239799092  0.29453551953598817  0.6946723556688442  1.0000
  N   N8        1.0  0.4810956755581217  0.7945355208872897  0.8053276445478946  1.0000
  O   O1        1.0  0.3325180568713742  0.3606819756989242  0.22313574710344614  1.0000
  O   O2        1.0  0.6674819428977683  0.8606819752587416  0.2768642529839342  1.0000
  O   O3        1.0  0.6674819431554276  0.6393180252121947  0.776864253049611  1.0000
  O   O4        1.0  0.33251805712903365  0.13931802386089323  0.723135747169123  1.0000
  O   O5        1.0  0.21238456382189777  0.5041865851078365  0.27401283407120797  1.0000
  O   O6        1.0  0.7876154366936752  0.00418658554801912  0.22598716601816754  1.0000
  O   O7        1.0  0.7876154362049042  0.4958134140117983  0.7259871660818492  1.0000
  O   O8        1.0  0.21238456333312672  0.9958134153630998  0.7740128341348895  1.0000
  Br  Br1       1.0  0.295168804976133  0.36115207188350834  0.4869913995731052  1.0000
  Br  Br2       1.0  0.70483119553944  0.8611520714433256  0.013008600516270225  1.0000
  Br  Br3       1.0  0.7048311955368389  0.6388479290276107  0.5130085999997906  1.0000
  Br  Br4       1.0  0.29516880448736205  0.1388479276763091  0.9869913996367871  1.0000
