data_image0
_chemical_formula_structural       H124C92N24O22Cl8
_chemical_formula_sum              "H124 C92 N24 O22 Cl8"
_cell_length_a       6.655782986172944
_cell_length_b       22.811451793051376
_cell_length_c       16.49048025268425
_cell_angle_alpha    90.0
_cell_angle_beta     90.53553918934465
_cell_angle_gamma    90.0

_space_group_name_H-M_alt    "P 1"
_space_group_IT_number       1

loop_
  _space_group_symop_operation_xyz
  'x, y, z'

loop_
  _atom_site_type_symbol
  _atom_site_label
  _atom_site_symmetry_multiplicity
  _atom_site_fract_x
  _atom_site_fract_y
  _atom_site_fract_z
  _atom_site_occupancy
  H   H1        1.0  0.30057142144280224  0.061583307048783245  0.2972844818579214  1.0000
  H   H2        1.0  0.699428578688584  0.5615833067627125  0.7027155184605947  1.0000
  H   H3        1.0  0.5969606591201743  0.9965092479087353  0.051426555537472954  1.0000
  H   H4        1.0  0.4030393410112119  0.4965092481948061  0.9485734447810432  1.0000
  H   H5        1.0  0.2537355838900637  0.914816374657781  0.18082238522019484  1.0000
  H   H6        1.0  0.7462644162413226  0.4148163745054754  0.8191776150983213  1.0000
  H   H7        1.0  0.32543647356084426  0.03440526131874996  0.4570564195869325  1.0000
  H   H8        1.0  0.6745635265705419  0.5344052614710556  0.5429435807315836  1.0000
  H   H9        1.0  0.23646175952626122  0.05371278475021173  0.037814925964625774  1.0000
  H   H10       1.0  0.7635382405944436  0.5537127844641411  0.9621850737474549  1.0000
  H   H11       1.0  0.14897597262920356  0.04547589690525505  0.1797776570334627  1.0000
  H   H12       1.0  0.8510240275021826  0.5454758970575606  0.8202223432850534  1.0000
  H   H13       1.0  0.009242463149603248  0.9869290501211238  0.13743652428952435  1.0000
  H   H14       1.0  0.990757536981783  0.48692904996881814  0.8625634760289916  1.0000
  H   H15       1.0  0.5455321019776932  0.1034892864959655  0.07887778217983529  1.0000
  H   H16       1.0  0.45446789815369293  0.6034892866482711  0.9211222181386808  1.0000
  H   H17       1.0  0.45908179319247533  0.08708863591948786  0.17765962233631288  1.0000
  H   H18       1.0  0.5409182069282297  0.5870886360717935  0.8223403773757678  1.0000
  H   H19       1.0  0.3120214621185677  0.8079893255901588  0.49018097629802954  1.0000
  H   H20       1.0  0.6879785380128185  0.3079893254378532  0.5098190240204865  1.0000
  H   H21       1.0  0.293080915015906  0.7374680898268995  0.3968476410964168  1.0000
  H   H22       1.0  0.7069190851154802  0.2374680896745939  0.6031523592220993  1.0000
  H   H23       1.0  0.8441435925332971  0.08222428747701825  0.11375866946789462  1.0000
  H   H24       1.0  0.15585640758740787  0.5822242876293239  0.886241330244186  1.0000
  H   H25       1.0  0.28898655523490474  0.7548369260410281  0.2908408182072327  1.0000
  H   H26       1.0  0.7110134448858001  0.25483692588872253  0.709159181504848  1.0000
  H   H27       1.0  0.11565431065314954  0.9692323531435569  0.9848321822657272  1.0000
  H   H28       1.0  0.8843456894782366  0.4692323534296278  0.015167818052788815  1.0000
  H   H29       1.0  0.8095193232039991  0.7995032194994027  0.7585852785023226  1.0000
  H   H30       1.0  0.1904806769167057  0.2995032197854735  0.24141472120975815  1.0000
  H   H31       1.0  0.8049529140631946  0.771652940798881  0.9171453240918112  1.0000
  H   H32       1.0  0.1950470860575104  0.2716529406465753  0.08285467562026948  1.0000
  H   H33       1.0  0.5644344416995299  0.8179311851463787  0.018990877260776154  1.0000
  H   H34       1.0  0.4355655584318562  0.31793118543244947  0.9810091230577399  1.0000
  H   H35       1.0  0.5580760140591865  0.88190251205879  0.08147285942502291  1.0000
  H   H36       1.0  0.4419239860721997  0.3819025123448608  0.9185271408934933  1.0000
  H   H37       1.0  0.6659093120222035  0.7616263965843794  0.12631531352387226  1.0000
  H   H38       1.0  0.33409068659602087  0.2616263968704501  0.8736846861868512  1.0000
  H   H39       1.0  0.9730042789638979  0.737272203127511  0.21521110031076382  1.0000
  H   H40       1.0  0.02699571966500777  0.23727220341358174  0.7847889000063951  1.0000
  H   H41       1.0  0.012912450941508674  0.7195393900794954  0.11126478567123127  1.0000
  H   H42       1.0  0.9870875491791963  0.21953939036556616  0.8887352140408494  1.0000
  H   H43       1.0  0.9976947420372705  0.8448445072606254  0.17689763663326422  1.0000
  H   H44       1.0  0.0023052580834344184  0.3448445071083198  0.8231023630788165  1.0000
  H   H45       1.0  0.8863279209051933  0.9103562034717019  0.04326690297300888  1.0000
  H   H46       1.0  0.11367207921551171  0.4103562033193964  0.9567330967390718  1.0000
  H   H47       1.0  0.9672985531895666  0.07807257013525534  0.9269836725201762  1.0000
  H   H48       1.0  0.032701446931138405  0.5780725698491846  0.07301632719190455  1.0000
  H   H49       1.0  0.9818522691273045  0.09141856243604947  0.8203180882972712  1.0000
  H   H50       1.0  0.018147731004081666  0.5914185625883551  0.17968191202124506  1.0000
  H   H51       1.0  0.929754457134091  0.0237636203481413  0.7289672296023655  1.0000
  H   H52       1.0  0.07024554298661397  0.5237636205004469  0.27103277010971516  1.0000
  H   H53       1.0  0.3233434858137307  0.7378263151636353  0.12677196103450372  1.0000
  H   H54       1.0  0.6766565143069743  0.23782631501132975  0.8732280386775769  1.0000
  H   H55       1.0  0.503787416274772  0.8269408817612434  0.21593062919236405  1.0000
  H   H56       1.0  0.496212583845933  0.3269408816089377  0.7840693705197166  1.0000
  H   H57       1.0  0.03817448589698503  0.1380037109676174  0.04333765954974006  1.0000
  H   H58       1.0  0.9618255142237199  0.6380037106815467  0.9566623401623405  1.0000
  H   H59       1.0  0.8157895925096199  0.13827055106421546  0.0050850387150352195  1.0000
  H   H60       1.0  0.18421040762176624  0.6382705512165211  0.9949149616034808  1.0000
  H   H61       1.0  0.8239179632203539  0.7044795752497947  0.3755481283467245  1.0000
  H   H62       1.0  0.176082036900351  0.204479575097489  0.6244518713653562  1.0000
  H   H63       1.0  0.8145958735625923  0.8081250854719977  0.3290916683821652  1.0000
  H   H64       1.0  0.1854041250663133  0.3081250853196921  0.6709083319349937  1.0000
  H   H65       1.0  0.7615948765377147  0.9963118689763969  0.2613723223854395  1.0000
  H   H66       1.0  0.23840512358299015  0.4963118692624677  0.738627677326641  1.0000
  H   H67       1.0  0.7064159893531433  0.63989447240909  0.4778987484226917  1.0000
  H   H68       1.0  0.29358401077824275  0.13989447269516067  0.5221012518958245  1.0000
  H   H69       1.0  0.7497275724013682  0.6603168656976183  0.5824605643245486  1.0000
  H   H70       1.0  0.2502724277193368  0.1603168655453127  0.41753943538753197  1.0000
  H   H71       1.0  0.9589227291492425  0.649087714115165  0.5161443646094367  1.0000
  H   H72       1.0  0.041077270982143685  0.1490877139628594  0.4838556357090794  1.0000
  H   H73       1.0  0.7599955432495333  0.8909715981422552  0.2968968262594633  1.0000
  H   H74       1.0  0.2400044568711715  0.3909715979899497  0.7031031734526173  1.0000
  H   H75       1.0  0.8458768975590535  0.9431213153453649  0.5492894198505679  1.0000
  H   H76       1.0  0.1541231025616516  0.44312131563143575  0.4507105798615128  1.0000
  H   H77       1.0  0.9482286582568276  0.09846279580873415  0.33535615282133796  1.0000
  H   H78       1.0  0.05177134186387739  0.5984627959610397  0.6646438468907427  1.0000
  H   H79       1.0  0.7515799905002659  0.11284293053123882  0.40660151104406034  1.0000
  H   H80       1.0  0.2484200096204391  0.6128429302451681  0.5933984886680204  1.0000
  H   H81       1.0  0.6925581419923029  0.09050992145221197  0.30493356249684467  1.0000
  H   H82       1.0  0.30744185812840213  0.5905099216045175  0.695066437215236  1.0000
  H   H83       1.0  0.8265856837481822  0.04589898220852978  0.5023865610128019  1.0000
  H   H84       1.0  0.17341431638320398  0.5458989823608353  0.4976134393057141  1.0000
  H   H85       1.0  0.7947854613889657  0.8591162416050028  0.5833153028718011  1.0000
  H   H86       1.0  0.2052145387317392  0.35911624145269716  0.41668469684027953  1.0000
  H   H87       1.0  0.7843146961847682  0.7522975234407233  0.6170253386012139  1.0000
  H   H88       1.0  0.2156853039359367  0.2522975232884178  0.38297466111086675  1.0000
  H   H89       1.0  0.3332199880780794  0.17954728209134002  0.052363399237112154  1.0000
  H   H90       1.0  0.6667800120426256  0.6795472818052692  0.9476366004749686  1.0000
  H   H91       1.0  0.23308370216806648  0.17493556947636105  0.1413331747039598  1.0000
  H   H92       1.0  0.7669162979633196  0.6749355696286666  0.8586668256145564  1.0000
  H   H93       1.0  0.3348316330356209  0.8913067469118013  0.9234016617194533  1.0000
  H   H94       1.0  0.665168367085084  0.3913067467594957  0.07659833799262754  1.0000
  H   H95       1.0  0.33193572295958756  0.7654933306489122  0.6804495432934161  1.0000
  H   H96       1.0  0.6680642771717985  0.26549333049660667  0.31955045702510004  1.0000
  H   H97       1.0  0.3927079698145204  0.8714410292840422  0.661857625713807  1.0000
  H   H98       1.0  0.6072920303061846  0.3714410291317365  0.3381423739982736  1.0000
  H   H99       1.0  0.49418826449574477  0.08038166735878433  0.8940051078441982  1.0000
  H   H100      1.0  0.5058117356249602  0.5803816670727137  0.10599489186788238  1.0000
  H   H101      1.0  0.10855148102195084  0.70024321007336  0.7848952688879692  1.0000
  H   H102      1.0  0.8914485190987542  0.2002432099210544  0.21510473082411144  1.0000
  H   H103      1.0  0.25991184659422284  0.6968535643506115  0.8757873726742633  1.0000
  H   H104      1.0  0.7400881520346828  0.19685356419830594  0.12421262764289556  1.0000
  H   H105      1.0  0.37520097170063604  0.6856053688246188  0.7790629836910818  1.0000
  H   H106      1.0  0.6247990269282697  0.18560536911068948  0.2209370166260771  1.0000
  H   H107      1.0  0.4252190815033171  0.06703312107762417  0.6445248575715125  1.0000
  H   H108      1.0  0.5747809171149073  0.5670331212299298  0.3554751421392111  1.0000
  H   H109      1.0  0.36939657611880017  0.9595292232416092  0.650887283131663  1.0000
  H   H110      1.0  0.6306034240019047  0.4595292235276799  0.34911271658041765  1.0000
  H   H111      1.0  0.44790747863451347  0.9731036415999498  0.9127299108171664  1.0000
  H   H112      1.0  0.5520925214861915  0.4731036414476443  0.0872700888949143  1.0000
  H   H113      1.0  0.27258303260917044  0.7842910263804316  0.9302439447170713  1.0000
  H   H114      1.0  0.7274169675115345  0.28429102622812596  0.06975605499500939  1.0000
  H   H115      1.0  0.4642666306641194  0.15988734531622387  0.8205496936185575  1.0000
  H   H116      1.0  0.5357333694565855  0.6598873454685295  0.1794503060935233  1.0000
  H   H117      1.0  0.37398879739152824  0.15571579714545  0.7174116218278486  1.0000
  H   H118      1.0  0.6260112027291767  0.6557157972977556  0.28258837788423213  1.0000
  H   H119      1.0  0.6387698143725312  0.14824462338824468  0.73983842102836  1.0000
  H   H120      1.0  0.36123018575885496  0.6482446235405502  0.2601615792901562  1.0000
  H   H121      1.0  0.259531370200868  0.6150998207958907  0.3979840491099418  1.0000
  H   H122      1.0  0.7404686299305182  0.11509982108196135  0.6020159512085743  1.0000
  H   H123      1.0  0.35376510402576256  0.6494322783310381  0.4714193230517655  1.0000
  H   H124      1.0  0.6462348960949422  0.14943227817873253  0.5285806766603152  1.0000
  C   C1        1.0  0.3035811540213318  0.018595064174267508  0.3258618417820435  1.0000
  C   C2        1.0  0.6964188460993732  0.5185950643265731  0.6741381579300372  1.0000
  C   C3        1.0  0.31943445136372967  0.8994444902559818  0.47560659407456424  1.0000
  C   C4        1.0  0.6805655487569753  0.3994444901036763  0.5243934056375165  1.0000
  C   C5        1.0  0.30985844954093644  0.9413312828489486  0.41151204672421504  1.0000
  C   C6        1.0  0.6901415490772879  0.4413312826966429  0.5884879529865084  1.0000
  C   C7        1.0  0.29873848833347383  0.8248607112210037  0.36719505514537465  1.0000
  C   C8        1.0  0.7012615117872312  0.3248607110686981  0.6328049445667061  1.0000
  C   C9        1.0  0.492664291709113  0.0119791678530184  0.09836327612658984  1.0000
  C   C10       1.0  0.507335708422273  0.5119791675669476  0.9016367241919263  1.0000
  C   C11       1.0  0.2977154236989927  0.9197947929991597  0.33160488675103816  1.0000
  C   C12       1.0  0.7022845764217122  0.4197947932852304  0.6683951129610426  1.0000
  C   C13       1.0  0.2958373434454209  0.9606209906672837  0.19285385186385054  1.0000
  C   C14       1.0  0.7041626566859652  0.4606209905149781  0.8071461484546655  1.0000
  C   C15       1.0  0.31406478365064716  0.003938730021005009  0.4067356300694675  1.0000
  C   C16       1.0  0.6859352149782585  0.5039387301733106  0.5932643702476915  1.0000
  C   C17       1.0  0.2754354603627735  0.012227728972733155  0.06800390998772504  1.0000
  C   C18       1.0  0.7245645397579316  0.5122277291250388  0.9319960897243557  1.0000
  C   C19       1.0  0.16161300837744746  0.0037247168996881494  0.1470579975855819  1.0000
  C   C20       1.0  0.8383869917539387  0.5037247170519937  0.8529420027329342  1.0000
  C   C21       1.0  0.5589974304012901  0.07186709135713043  0.12917817310648058  1.0000
  C   C22       1.0  0.44100256821693434  0.5718670915094359  0.8708218266042429  1.0000
  C   C23       1.0  0.9324738042951903  0.0063971772302739436  0.8517196731075195  1.0000
  C   C24       1.0  0.06752619582551471  0.5063971769442033  0.14828032660456114  1.0000
  C   C25       1.0  0.858810436341131  0.8917426485847947  0.8059391316977056  1.0000
  C   C26       1.0  0.14118956228777474  0.39174264887086546  0.19406086861945332  1.0000
  C   C27       1.0  0.8758602365249143  0.911978983570743  0.8867050693916821  1.0000
  C   C28       1.0  0.12413976359579068  0.41197898341843747  0.1132949303203985  1.0000
  C   C29       1.0  0.8263363169055824  0.82990926407265  0.808732216107066  1.0000
  C   C30       1.0  0.17366368322580367  0.3299092639203444  0.19126778421145013  1.0000
  C   C31       1.0  0.8761412859630785  0.9337745450505892  0.7424145435154154  1.0000
  C   C32       1.0  0.12385871415762648  0.43377454489828376  0.2575854561966653  1.0000
  C   C33       1.0  0.820777073332403  0.8145363771042361  0.8892884617887248  1.0000
  C   C34       1.0  0.1792229267989832  0.31453637695193054  0.11071153852979136  1.0000
  C   C35       1.0  0.6504000942809697  0.8446355530018941  0.06233960509457047  1.0000
  C   C36       1.0  0.3495999058504165  0.3446355528495886  0.9376603952239457  1.0000
  C   C37       1.0  0.7159385629289324  0.8072779846309243  0.13558064798678507  1.0000
  C   C38       1.0  0.28406143719177257  0.307277984916995  0.8644193517252956  1.0000
  C   C39       1.0  0.04425630544957486  0.752414623396668  0.15884085846713986  1.0000
  C   C40       1.0  0.9557436946818113  0.2524146232443625  0.8411591418513764  1.0000
  C   C41       1.0  0.947367272514168  0.8099693288976975  0.1345712560458821  1.0000
  C   C42       1.0  0.05263272761721815  0.30996932874539185  0.865428744272634  1.0000
  C   C43       1.0  0.8487431641323823  0.8652682871334135  0.024493955544685874  1.0000
  C   C44       1.0  0.15125683599900397  0.36526828698110797  0.9755060447738301  1.0000
  C   C45       1.0  0.8057075196362178  0.8439464201863849  0.45208828478880375  1.0000
  C   C46       1.0  0.1942924804951684  0.3439464204724556  0.5479117155297123  1.0000
  C   C47       1.0  0.8109253277953116  0.741030453622822  0.41777980710952145  1.0000
  C   C48       1.0  0.18907467233607453  0.2410304539088928  0.5822201932089947  1.0000
  C   C49       1.0  0.8064870598813939  0.9063698250147333  0.4272559500512822  1.0000
  C   C50       1.0  0.19351294024999222  0.40636982530080396  0.572744050267234  1.0000
  C   C51       1.0  0.8117211232043572  0.7989810063536517  0.3938376176447324  1.0000
  C   C52       1.0  0.1882788769163477  0.29898100620134604  0.6061623820673483  1.0000
  C   C53       1.0  0.7821802195015453  0.9813457408624471  0.32369325925435316  1.0000
  C   C54       1.0  0.21781978061915966  0.4813457411485178  0.6763067404577275  1.0000
  C   C55       1.0  0.8030109482277721  0.6642699016910341  0.5200278842072833  1.0000
  C   C56       1.0  0.19698905190361413  0.16426990153872842  0.47997211611123297  1.0000
  C   C57       1.0  0.7832551885755876  0.9228268485924415  0.34539692891305407  1.0000
  C   C58       1.0  0.21674481155579844  0.4228268488785122  0.6546030714054621  1.0000
  C   C59       1.0  0.8267845887860301  0.9515080849265224  0.48462568361948793  1.0000
  C   C60       1.0  0.17321541133467477  0.4515080847742167  0.5153743160925928  1.0000
  C   C61       1.0  0.7978197013178672  0.0854771532162608  0.3556803608753812  1.0000
  C   C62       1.0  0.20218029880283778  0.5854771533685663  0.6443196388366995  1.0000
  C   C63       1.0  0.822049219603163  0.009403161269434811  0.45988881681450794  1.0000
  C   C64       1.0  0.17795077902574266  0.5094031614217404  0.5401111835026511  1.0000
  C   C65       1.0  0.7978631302025668  0.8271340711312132  0.5341587769952705  1.0000
  C   C66       1.0  0.20213686991813806  0.3271340709789077  0.4658412227168103  1.0000
  C   C67       1.0  0.7938093711985702  0.7683546746173783  0.554814191426601  1.0000
  C   C68       1.0  0.20619062893281595  0.2683546744650726  0.445185808891915  1.0000
  C   C69       1.0  0.3721524996671178  0.89187994979773  0.7915802472206176  1.0000
  C   C70       1.0  0.6278475004642685  0.3918799496454244  0.20841975309789856  1.0000
  C   C71       1.0  0.3379858249231792  0.8658917454792051  0.8675100077639096  1.0000
  C   C72       1.0  0.6620141751975256  0.3658917453268995  0.13248999194817107  1.0000
  C   C73       1.0  0.33527987911750395  0.7956536398761211  0.7319723527560271  1.0000
  C   C74       1.0  0.6647201210138821  0.29565363972381564  0.2680276475624889  1.0000
  C   C75       1.0  0.37013022320683203  0.8549728731400114  0.723192048565199  1.0000
  C   C76       1.0  0.6298697769138728  0.35497287342608214  0.2768079511468815  1.0000
  C   C77       1.0  0.46768728459159525  0.050754590304185485  0.8431916168051071  1.0000
  C   C78       1.0  0.5323127155397909  0.550754590456491  0.15680838351340903  1.0000
  C   C79       1.0  0.25737418204595763  0.7092038852576665  0.8118064337429379  1.0000
  C   C80       1.0  0.7426258165722669  0.20920388510536095  0.18819356596778566  1.0000
  C   C81       1.0  0.4257679407867191  0.043256200392320976  0.7017517925569561  1.0000
  C   C82       1.0  0.5742320593339858  0.5432562001062502  0.2982482071551246  1.0000
  C   C83       1.0  0.3989250820832587  0.9833592659294483  0.7071124693030388  1.0000
  C   C84       1.0  0.6010749180481275  0.48335926621551906  0.2928875310154773  1.0000
  C   C85       1.0  0.4438034699933519  0.9909840340318004  0.8516427150312763  1.0000
  C   C86       1.0  0.5561965301273529  0.4909840343178711  0.14835728468080425  1.0000
  C   C87       1.0  0.301752002585642  0.8063035771183445  0.8729748445836847  1.0000
  C   C88       1.0  0.6982479975350631  0.306303576966039  0.12702515512839602  1.0000
  C   C89       1.0  0.4856635319391261  0.13968762614971472  0.7611144593609636  1.0000
  C   C90       1.0  0.5143364681815789  0.639687625863644  0.23888554035111706  1.0000
  C   C91       1.0  0.406307840020902  0.9555761600688624  0.7833365654319687  1.0000
  C   C92       1.0  0.593692160099803  0.4555761603549331  0.21666343428011192  1.0000
  N   N1        1.0  0.3088040988621255  0.8413801731745296  0.4472750322639653  1.0000
  N   N2        1.0  0.6911959012585794  0.34138017302222395  0.5527249674481154  1.0000
  N   N3        1.0  0.2922353590771233  0.9669610308064237  0.2799387027303863  1.0000
  N   N4        1.0  0.7077646410542628  0.46696103109249437  0.7200612975881299  1.0000
  N   N5        1.0  0.29705766165024244  0.7669957641770773  0.3505485373329062  1.0000
  N   N6        1.0  0.702942336967982  0.266995764463148  0.6494514623778174  1.0000
  N   N7        1.0  0.2928787590980616  0.8633919295745739  0.3067555165075058  1.0000
  N   N8        1.0  0.7071212410333245  0.3633919294222682  0.6932444838110103  1.0000
  N   N9        1.0  0.9133708807694445  0.9675096749748677  0.9119396114419994  1.0000
  N   N10       1.0  0.08662911935126041  0.46750967526093834  0.08806038827008124  1.0000
  N   N11       1.0  0.9125625415681364  0.9908422771620783  0.7714864887802675  1.0000
  N   N12       1.0  0.08743745856324969  0.490842277448149  0.2285135115382486  1.0000
  N   N13       1.0  0.850446925196514  0.8645924423805296  0.9368675166698679  1.0000
  N   N14       1.0  0.14955307493487222  0.36459244222822396  0.06313248364864829  1.0000
  N   N15       1.0  0.9761302404920137  0.06264823356991767  0.8679487844431313  1.0000
  N   N16       1.0  0.023869759639372466  0.5626482337222233  0.1320512158753848  1.0000
  N   N17       1.0  0.8002979394814  0.7264209525255918  0.49699075883153737  1.0000
  N   N18       1.0  0.19970206063930493  0.22642095237328622  0.5030092408805433  1.0000
  N   N19       1.0  0.8007759427671827  0.023679067641128256  0.3807599897839993  1.0000
  N   N20       1.0  0.19922405736420337  0.5236790677934338  0.6192400105345168  1.0000
  N   N21       1.0  0.30067722594254287  0.7721709117771067  0.8058960298166167  1.0000
  N   N22       1.0  0.6993227741888434  0.2721709116248012  0.19410397050189948  1.0000
  N   N23       1.0  0.45905945239384544  0.07607694178099747  0.7690770440124507  1.0000
  N   N24       1.0  0.5409405477375407  0.576076941933303  0.2309229563060654  1.0000
  O   O1        1.0  0.24595289904366877  0.9636759939451212  0.014358611043743677  1.0000
  O   O2        1.0  0.7540471010877173  0.46367599379281543  0.9856413892747724  1.0000
  O   O3        1.0  0.49773773556404727  0.9690372542063926  0.16307214687167126  1.0000
  O   O4        1.0  0.5022622645566577  0.46903725405408714  0.8369278528404095  1.0000
  O   O5        1.0  0.7590205550919754  0.07086967917107523  0.1604399391129352  1.0000
  O   O6        1.0  0.24097944503941068  0.5708696788850045  0.8395600612055809  1.0000
  O   O7        1.0  0.3372248028236422  0.9089893382549296  0.5498484999697374  1.0000
  O   O8        1.0  0.662775197307744  0.4089893381026241  0.45015150034877877  1.0000
  O   O9        1.0  0.000513989151432592  0.8252645312007039  0.05299394891277076  1.0000
  O   O10       1.0  0.9994860109799536  0.3252645310483983  0.9470060514057452  1.0000
  O   O11       1.0  0.2561104160010672  0.7569600118682419  0.17330773707906216  1.0000
  O   O12       1.0  0.7438895841196378  0.25696001171593635  0.8266922626330185  1.0000
  O   O13       1.0  0.8608147828764845  0.9252403363660153  0.6680585786559088  1.0000
  O   O14       1.0  0.13918521724422045  0.42524033665208605  0.33194142105617186  1.0000
  O   O15       1.0  0.6511392901535623  0.8280600406920999  0.21251635492324067  1.0000
  O   O16       1.0  0.3488607099778237  0.32806004097817065  0.7874836453952754  1.0000
  O   O17       1.0  0.926919387295895  0.11161802778267675  0.021685453906848756  1.0000
  O   O18       1.0  0.07308061283549128  0.6116180279349823  0.9783145464116675  1.0000
  O   O19       1.0  0.20451867033788168  0.17825052683576217  0.08174566077184736  1.0000
  O   O20       1.0  0.7954813282803428  0.6782505269880678  0.9182543389388761  1.0000
  O   O21       1.0  0.3728463087052593  0.6139562070427341  0.437403842011664  1.0000
  O   O22       1.0  0.6271536914261268  0.11395620732880486  0.5625961583068523  1.0000
  Cl  Cl1       1.0  0.2983953996633703  0.7232682448131476  0.5429307936994807  1.0000
  Cl  Cl2       1.0  0.7016046004573346  0.22326824466084208  0.45706920601259987  1.0000
  Cl  Cl3       1.0  0.2540501678546524  0.17369807962888897  0.26537008937939943  1.0000
  Cl  Cl4       1.0  0.7459498322660527  0.6736980793428182  0.7346299103326813  1.0000
  Cl  Cl5       1.0  0.4298660086588058  0.6889959535494173  0.030782579312333132  1.0000
  Cl  Cl6       1.0  0.570133991461899  0.18899595339711178  0.9692174203997476  1.0000
  Cl  Cl7       1.0  0.013745627138256328  0.6165368113170282  0.31416421461110694  1.0000
  Cl  Cl8       1.0  0.9862543729824487  0.11653681160309887  0.6858357851009739  1.0000
