data_image0
_chemical_formula_structural       H80C60N12O12S4I4
_chemical_formula_sum              "H80 C60 N12 O12 S4 I4"
_cell_length_a       7.620641624565651
_cell_length_b       11.429137292480611
_cell_length_c       20.601925092894323
_cell_angle_alpha    90.0
_cell_angle_beta     90.0
_cell_angle_gamma    90.0

_space_group_name_H-M_alt    "P 1"
_space_group_IT_number       1

loop_
  _space_group_symop_operation_xyz
  'x, y, z'

loop_
  _atom_site_type_symbol
  _atom_site_label
  _atom_site_symmetry_multiplicity
  _atom_site_fract_x
  _atom_site_fract_y
  _atom_site_fract_z
  _atom_site_occupancy
  H   H1        1.0  0.133222925314752  0.33667519879488994  0.20090512276581216  1.0000
  H   H2        1.0  0.36677707438568985  0.6633248009880673  0.7009051229382639  1.0000
  H   H3        1.0  0.6332229263274193  0.16332480065911034  0.7990948770936998  1.0000
  H   H4        1.0  0.8667770740861317  0.8366751991238469  0.2990948774066396  1.0000
  H   H5        1.0  0.36427897239666146  0.3380872896279065  0.19790222038066865  1.0000
  H   H6        1.0  0.13572102730378038  0.6619127101550507  0.6979022200677288  1.0000
  H   H7        1.0  0.8642789720971032  0.16191270982609374  0.8020977799642349  1.0000
  H   H8        1.0  0.6357210270042223  0.8380872899568634  0.3020977797917831  1.0000
  H   H9        1.0  0.9807086001667177  0.49843251806485056  0.24113416622961226  1.0000
  H   H10       1.0  0.5192914002468334  0.5015674817181066  0.7411341659166725  1.0000
  H   H11       1.0  0.4807086004662757  0.0015674813891496868  0.7588658341152912  1.0000
  H   H12       1.0  0.019291399234166087  0.9984325183938074  0.25886583394283946  1.0000
  H   H13       1.0  0.09837654057675618  0.6198717819813974  0.2695176623040487  1.0000
  H   H14       1.0  0.40162345912368563  0.3801282178015598  0.7695176619911089  1.0000
  H   H15       1.0  0.5983765402771981  0.8801282181305168  0.7304823380408547  1.0000
  H   H16       1.0  0.9016234588241274  0.11987178252739711  0.23048233786840303  1.0000
  H   H17       1.0  0.8963544825386447  0.522857358090498  0.10886774123713219  1.0000
  H   H18       1.0  0.6036455178749063  0.4771426416924592  0.6088677414095839  1.0000
  H   H19       1.0  0.3963544828382028  0.9771426420214162  0.8911322586223798  1.0000
  H   H20       1.0  0.10364551686223905  0.02285735776154105  0.3911322589353195  1.0000
  H   H21       1.0  0.4012323188304075  0.6244855720383856  0.26395552092729346  1.0000
  H   H22       1.0  0.0987676808700343  0.3755144277445716  0.7639555206143537  1.0000
  H   H23       1.0  0.9012323185308494  0.8755144271985719  0.73604447941761  1.0000
  H   H24       1.0  0.5987676805704762  0.12448557258438529  0.23604447924515828  1.0000
  H   H25       1.0  0.5189782940652872  0.5073410714748255  0.2303301797576505  1.0000
  H   H26       1.0  0.9810217063482639  0.49265892918308835  0.7303301799301023  1.0000
  H   H27       1.0  0.018978293052619857  0.9926589286370886  0.7696698201018615  1.0000
  H   H28       1.0  0.48102170664782196  0.007341071145868583  0.26966982041480125  1.0000
  H   H29       1.0  0.9072689493378546  0.5536979570770814  0.9898337804865351  1.0000
  H   H30       1.0  0.5927310510756962  0.4463020427058758  0.48983378031408337  1.0000
  H   H31       1.0  0.40726894963741284  0.9463020430348328  0.010166219372976841  1.0000
  H   H32       1.0  0.092731050063029  0.05369795762308112  0.5101662195454286  1.0000
  H   H33       1.0  0.6131287324860014  0.23287815098267312  0.9617995367255381  1.0000
  H   H34       1.0  0.8868712679275497  0.767121848800284  0.4617995365530864  1.0000
  H   H35       1.0  0.11312873278555956  0.2671218493462838  0.03820046313397383  1.0000
  H   H36       1.0  0.38687126822710777  0.73287815131163  0.5382004633064256  1.0000
  H   H37       1.0  0.6058788639418748  0.20319660535777398  0.08133652619569766  1.0000
  H   H38       1.0  0.8941211364716761  0.7968033944251832  0.5813365263681494  1.0000
  H   H39       1.0  0.105878864241433  0.296803394971183  0.9186634736638144  1.0000
  H   H40       1.0  0.39412113545900884  0.7031966048117743  0.41866347349136257  1.0000
  H   H41       1.0  0.5771113767931146  0.6878736232499708  0.009284021718240752  1.0000
  H   H42       1.0  0.9228886236204364  0.31212637653298636  0.5092840218906924  1.0000
  H   H43       1.0  0.07711137578044727  0.8121263768619433  0.9907159781412713  1.0000
  H   H44       1.0  0.42288862391999454  0.18787362379597056  0.4907159779688195  1.0000
  H   H45       1.0  0.808096928498589  0.979397580372446  0.9081226674517336  1.0000
  H   H46       1.0  0.6919030706027365  0.0206024194105112  0.4081226677646735  1.0000
  H   H47       1.0  0.3080969287981472  0.5206024197394682  0.09187733240777826  1.0000
  H   H48       1.0  0.19190307090229466  0.4793975809184457  0.59187733258023  1.0000
  H   H49       1.0  0.877833872732637  0.0723529763304226  0.013509688475471425  1.0000
  H   H50       1.0  0.622166127680914  0.9276470234525346  0.5135096881625316  1.0000
  H   H51       1.0  0.37783387171996974  0.42764702312357766  0.9864903118694321  1.0000
  H   H52       1.0  0.12216612798047209  0.5723529766593796  0.4864903116969803  1.0000
  H   H53       1.0  0.7989286151934765  0.9748089951924864  0.11698864640718859  1.0000
  H   H54       1.0  0.7010713852200745  0.02519100546542747  0.6169886465796403  1.0000
  H   H55       1.0  0.2989286141808091  0.5251910049194277  0.8830113534523234  1.0000
  H   H56       1.0  0.20107138551963272  0.4748089948635295  0.3830113537652632  1.0000
  H   H57       1.0  0.5851282083159435  0.6752129029963782  0.12428687603000471  1.0000
  H   H58       1.0  0.9148717920976075  0.324787096786579  0.6242868757170649  1.0000
  H   H59       1.0  0.08512820861550163  0.8247870971155359  0.8757131243148988  1.0000
  H   H60       1.0  0.4148717910849402  0.17521290266742123  0.375713124142447  1.0000
  H   H61       1.0  0.5302186992988664  0.8130401326190704  0.15850217905734765  1.0000
  H   H62       1.0  0.9697812998024591  0.18695986803884349  0.6585021792297995  1.0000
  H   H63       1.0  0.030218699598424624  0.6869598674928438  0.8414978208021642  1.0000
  H   H64       1.0  0.46978130010201724  0.31304013229011346  0.34149782111510407  1.0000
  H   H65       1.0  0.7465949483386556  0.7591699520232812  0.16574697678023032  1.0000
  H   H66       1.0  0.7534050520748955  0.240830047759676  0.6657469764672905  1.0000
  H   H67       1.0  0.24659494732598825  0.7408300480886331  0.8342530230792816  1.0000
  H   H68       1.0  0.2534050523744536  0.2591699516943242  0.3342530233922214  1.0000
  H   H69       1.0  0.7538097082904639  0.7726910303028877  0.8538887885806097  1.0000
  H   H70       1.0  0.7461902921230871  0.2273089694800695  0.3538887888935495  1.0000
  H   H71       1.0  0.25380970859002205  0.7273089698090265  0.14611121127890223  1.0000
  H   H72       1.0  0.2461902911104198  0.2726910308488874  0.646111211451354  1.0000
  H   H73       1.0  0.5321172323506455  0.813579117307272  0.8638400566817985  1.0000
  H   H74       1.0  0.9678827667506801  0.18642088247568528  0.36384005650934675  1.0000
  H   H75       1.0  0.03211723265020353  0.6864208828046422  0.136159943663105  1.0000
  H   H76       1.0  0.4678827670502383  0.313579116978315  0.6361599433501652  1.0000
  H   H77       1.0  0.6053091573195342  0.677569366070605  0.8943239375409036  1.0000
  H   H78       1.0  0.8946908430940168  0.3224306345873088  0.39432393736845195  1.0000
  H   H79       1.0  0.10530915630686688  0.822430634041309  0.10567606280399978  1.0000
  H   H80       1.0  0.39469084339357496  0.17756936574164814  0.60567606249106  1.0000
  C   C1        1.0  0.7511864554221545  0.36108637637200736  0.10176951039993545  1.0000
  C   C2        1.0  0.7488135449913965  0.6389136234109498  0.6017695105723871  1.0000
  C   C3        1.0  0.2511864557217126  0.13891362308199284  0.8982304894595765  1.0000
  C   C4        1.0  0.2488135439787292  0.8610863767009644  0.3982304892871248  1.0000
  C   C5        1.0  0.8360735098028111  0.4593571365578122  0.07650470346305732  1.0000
  C   C6        1.0  0.6639264892985144  0.540642863225145  0.5765047036355091  1.0000
  C   C7        1.0  0.3360735101023693  0.040642862896188105  0.9234952963964546  1.0000
  C   C8        1.0  0.16392648959807257  0.9593571368867692  0.42349529670939445  1.0000
  C   C9        1.0  0.841515867814544  0.476901716246423  0.009645098169419853  1.0000
  C   C10       1.0  0.6584841312867815  0.5230982844114909  0.50964509785648  1.0000
  C   C11       1.0  0.3415158681141021  0.023098284082533945  0.9903549021754837  1.0000
  C   C12       1.0  0.1584841315863397  0.9769017157004233  0.4903549020030319  1.0000
  C   C13       1.0  0.7604697406736155  0.3953109831809  0.9689446597825466  1.0000
  C   C14       1.0  0.7395302597399355  0.6046890166020572  0.46894466009548635  1.0000
  C   C15       1.0  0.2604697409731736  0.10468901714805695  0.031055340076965386  1.0000
  C   C16       1.0  0.23953026003949368  0.8953109835098569  0.5310553402494171  1.0000
  C   C17       1.0  0.6762298890145907  0.2961320074636545  0.9937914082146411  1.0000
  C   C18       1.0  0.8237701100867348  0.7038679923193027  0.4937914080421893  1.0000
  C   C19       1.0  0.17622988931414885  0.20386799199034583  0.006208591644870908  1.0000
  C   C20       1.0  0.323770110386293  0.7961320077926114  0.5062085918173227  1.0000
  C   C21       1.0  0.6719585623201203  0.2792063983778952  0.06084677545169589  1.0000
  C   C22       1.0  0.8280414380934308  0.7207936022800187  0.5608467756241476  1.0000
  C   C23       1.0  0.1719585613074529  0.22079360195106176  0.939153224407816  1.0000
  C   C24       1.0  0.32804143839298894  0.7792063978318955  0.4391532242353643  1.0000
  C   C25       1.0  0.24966309317930183  0.4870751945260564  0.23268225801157602  1.0000
  C   C26       1.0  0.2503369078333655  0.5129248061318574  0.7326822581840279  1.0000
  C   C27       1.0  0.7496630928797436  0.012924805802900508  0.7673177418479359  1.0000
  C   C28       1.0  0.7503369075338073  0.9870751939800567  0.26731774216087567  1.0000
  C   C29       1.0  0.6820448613204857  0.8240616836579993  0.0702703351008357  1.0000
  C   C30       1.0  0.8179551377808398  0.17593831612495797  0.5702703352732874  1.0000
  C   C31       1.0  0.18204486162004385  0.6759383164539149  0.9297296647586762  1.0000
  C   C32       1.0  0.317955138080398  0.3240616833290423  0.42972966458622447  1.0000
  C   C33       1.0  0.6437722611420691  0.7724207964330021  0.010236954995663995  1.0000
  C   C34       1.0  0.8562277379592564  0.22757920334995507  0.5102369551681157  1.0000
  C   C35       1.0  0.14377226144162727  0.7275792036789119  0.9897630448638479  1.0000
  C   C36       1.0  0.3562277382588146  0.27242079697900184  0.4897630451767877  1.0000
  C   C37       1.0  0.6877342169070595  0.8264734789925549  0.9513346855512971  1.0000
  C   C38       1.0  0.812265782194266  0.17352652079040237  0.45133468537884536  1.0000
  C   C39       1.0  0.1877342172066177  0.6735265211193593  0.048665314793606355  1.0000
  C   C40       1.0  0.31226578249382414  0.3264734795385546  0.5486653144806666  1.0000
  C   C41       1.0  0.7725969203197608  0.9352724992666487  0.9532450871192347  1.0000
  C   C42       1.0  0.7274030800937902  0.06472750139126522  0.4532450869467831  1.0000
  C   C43       1.0  0.2725969206193189  0.5647275008452655  0.046754912740277134  1.0000
  C   C44       1.0  0.22740308039334842  0.43527249893769177  0.5467549129127288  1.0000
  C   C45       1.0  0.8113531359444305  0.9880333774124322  0.012650529444449372  1.0000
  C   C46       1.0  0.6886468644691205  0.011966622370524998  0.5126505296169012  1.0000
  C   C47       1.0  0.31135313624398864  0.511966622699482  0.9873494704150626  1.0000
  C   C48       1.0  0.18864686476867867  0.4880333770834752  0.4873494707280024  1.0000
  C   C49       1.0  0.7664293333480169  0.9331960004555254  0.07083506630665942  1.0000
  C   C50       1.0  0.7335706657533086  0.06680399932743177  0.5708350664791112  1.0000
  C   C51       1.0  0.26642933364757504  0.5668039996563887  0.9291649335528525  1.0000
  C   C52       1.0  0.23357066605286683  0.43319600012656845  0.4291649333804008  1.0000
  C   C53       1.0  0.6334753788235187  0.7642836792018366  0.13277900039271012  1.0000
  C   C54       1.0  0.8665246215900324  0.2357163214560772  0.6327790005651619  1.0000
  C   C55       1.0  0.13347537912307678  0.7357163209100775  0.8672209994668018  1.0000
  C   C56       1.0  0.366524620577365  0.26428367887287973  0.3672209997797416  1.0000
  C   C57       1.0  0.6428131634229953  0.7693279059465735  0.8877628424301065  1.0000
  C   C58       1.0  0.8571868356783302  0.2306720947113404  0.3877628422576547  1.0000
  C   C59       1.0  0.14281316372255345  0.7306720941653406  0.11223715742940552  1.0000
  C   C60       1.0  0.35718683597788836  0.26932790561761655  0.6122371576018573  1.0000
  N   N1        1.0  0.24851636821432904  0.38245729298184605  0.20318097367724816  1.0000
  N   N2        1.0  0.2514836314861128  0.6175427068011111  0.7031809733643083  1.0000
  N   N3        1.0  0.7485163679147709  0.11754270647215422  0.7968190266676553  1.0000
  N   N4        1.0  0.75148363249878  0.882457293310803  0.2968190264952036  1.0000
  N   N5        1.0  0.09892676458761683  0.5358927890410055  0.2520843307886421  1.0000
  N   N6        1.0  0.401073235112825  0.4641072107419518  0.7520843309610938  1.0000
  N   N7        1.0  0.5989267656002841  0.9641072110709088  0.7479156690708698  1.0000
  N   N8        1.0  0.9010732348132668  0.03589278871204844  0.24791566938380957  1.0000
  N   N9        1.0  0.40069718410016986  0.5440442713109134  0.24200055468212422  1.0000
  N   N10       1.0  0.09930281691249745  0.45595572847204385  0.7420005543691844  1.0000
  N   N11       1.0  0.9006971838006117  0.9559557288010009  0.7579994456627792  1.0000
  N   N12       1.0  0.5993028166129393  0.04404427185691311  0.2579994454903275  1.0000
  O   O1        1.0  0.9099545525991374  0.27258663364291585  0.2030791162056508  1.0000
  O   O2        1.0  0.5900454478144136  0.7274133670149979  0.7030791163781025  1.0000
  O   O3        1.0  0.40995455158647004  0.22741336668604106  0.7969208836538612  1.0000
  O   O4        1.0  0.09004544811397179  0.7725866330969162  0.2969208839668009  1.0000
  O   O5        1.0  0.5891859099536008  0.27258587243060584  0.20183359473693865  1.0000
  O   O6        1.0  0.9108140904599501  0.727414128227308  0.7018335949093903  1.0000
  O   O7        1.0  0.08918591025315901  0.22741412789835108  0.7981664051225733  1.0000
  O   O8        1.0  0.4108140907595083  0.7725858718846061  0.2981664049501216  1.0000
  O   O9        1.0  0.7505231779385754  0.45680442770032076  0.21610980672556696  1.0000
  O   O10       1.0  0.7494768211627502  0.5431955729575931  0.7161098068980186  1.0000
  O   O11       1.0  0.2505231782381335  0.04319557262863613  0.783890193133945  1.0000
  O   O12       1.0  0.2494768214623083  0.956804427154321  0.28389019296149326  1.0000
  S   S1        1.0  0.7497322248539204  0.3388753919815221  0.18693882550462854  1.0000
  S   S2        1.0  0.7502677742474051  0.6611246086763918  0.6869388251916888  1.0000
  S   S3        1.0  0.24973222515347862  0.1611246083474348  0.8130611748402748  1.0000
  S   S4        1.0  0.25026777454696325  0.8388753914355224  0.31306117466782324  1.0000
  I   I1        1.0  0.7623839810642113  0.4290352425135432  0.868789475706488  1.0000
  I   I2        1.0  0.7376160193493396  0.570964757269414  0.36878947601942785  1.0000
  I   I3        1.0  0.2623839813637695  0.07096475694045705  0.1312105241530239  1.0000
  I   I4        1.0  0.2376160183366723  0.9290352428425002  0.6312105243254756  1.0000
