data_image0
_chemical_formula_structural       H80C60N12O12S4Br4
_chemical_formula_sum              "H80 C60 N12 O12 S4 Br4"
_cell_length_a       7.582466600303268
_cell_length_b       11.33418885377044
_cell_length_c       20.05615750942768
_cell_angle_alpha    90.0
_cell_angle_beta     90.0
_cell_angle_gamma    90.0

_space_group_name_H-M_alt    "P 1"
_space_group_IT_number       1

loop_
  _space_group_symop_operation_xyz
  'x, y, z'

loop_
  _atom_site_type_symbol
  _atom_site_label
  _atom_site_symmetry_multiplicity
  _atom_site_fract_x
  _atom_site_fract_y
  _atom_site_fract_z
  _atom_site_occupancy
  H   H1        1.0  0.02320035804614874  0.475632259136626  0.7560225558097288  1.0000
  H   H2        1.0  0.4767996419338533  0.5243677405307132  0.2560225555461609  1.0000
  H   H3        1.0  0.5232003580261507  0.02436774025590044  0.24397744421880702  1.0000
  H   H4        1.0  0.9767996419138553  0.9756322594114387  0.7439774444823749  1.0000
  H   H5        1.0  0.9045749096640494  0.595653480553584  0.7238087247358405  1.0000
  H   H6        1.0  0.5954250902759567  0.40434651911375513  0.22380872497087254  1.0000
  H   H7        1.0  0.4045749096840473  0.9043465193885678  0.2761912752926954  1.0000
  H   H8        1.0  0.09542509029595471  0.09565348116105761  0.7761912750576632  1.0000
  H   H9        1.0  0.599369503298337  0.5998601044783424  0.7290273998460055  1.0000
  H   H10       1.0  0.900630496641669  0.40013989518899684  0.22902740008103759  1.0000
  H   H11       1.0  0.09936950331833502  0.9001398954638096  0.27097260018253033  1.0000
  H   H12       1.0  0.40063049666166706  0.0998601042035296  0.7709725999474982  1.0000
  H   H13       1.0  0.48169362854218417  0.48365046063057476  0.7658007024915053  1.0000
  H   H14       1.0  0.01830637143781791  0.5163495399190507  0.2658007027265375  1.0000
  H   H15       1.0  0.9816936285221862  0.016349539644237975  0.23419929753703037  1.0000
  H   H16       1.0  0.5183063714178199  0.9836504609053875  0.7341992973019983  1.0000
  H   H17       1.0  0.8711727618735309  0.3159470074304206  0.8014077623016563  1.0000
  H   H18       1.0  0.6288272380664752  0.6840529931192049  0.30140776203808844  1.0000
  H   H19       1.0  0.3711727618935288  0.18405299284439214  0.1985922377268794  1.0000
  H   H20       1.0  0.12882723808647317  0.8159470077052333  0.6985922379904472  1.0000
  H   H21       1.0  0.6379951518423459  0.3165255375823881  0.8039401431914718  1.0000
  H   H22       1.0  0.8620048480976602  0.683474462084951  0.3039401434265038  1.0000
  H   H23       1.0  0.1379951518623439  0.18347446269242462  0.19605985683706412  1.0000
  H   H24       1.0  0.36200484811765815  0.816525537857201  0.696059856602032  1.0000
  H   H25       1.0  0.11212436992020464  0.5146711445574214  0.8931056345952649  1.0000
  H   H26       1.0  0.3878756300597974  0.4853288551099178  0.39310563483029715  1.0000
  H   H27       1.0  0.6121243699002067  0.9853288553847306  0.10689436543327074  1.0000
  H   H28       1.0  0.8878756300397994  0.01467114516489491  0.6068943651982387  1.0000
  H   H29       1.0  0.10164710517408328  0.558239356307813  0.014291921065401503  1.0000
  H   H30       1.0  0.3983528948059188  0.44176064335952614  0.5142919208303693  1.0000
  H   H31       1.0  0.6016471051540853  0.9417606436343389  0.9857080789631343  1.0000
  H   H32       1.0  0.8983528961047529  0.058239356915286616  0.4857080791981664  1.0000
  H   H33       1.0  0.39429989970287793  0.23802717113739752  0.054394882942417185  1.0000
  H   H34       1.0  0.10570010027712415  0.7619728285299416  0.554394882707385  1.0000
  H   H35       1.0  0.8942998996828799  0.2619728282551289  0.9456051170861186  1.0000
  H   H36       1.0  0.6057001002571262  0.7380271714122102  0.4456051173211507  1.0000
  H   H37       1.0  0.40200956109428604  0.1943818784409168  0.9326661720325601  1.0000
  H   H38       1.0  0.09799043888571597  0.8056181212264224  0.43266617226759224  1.0000
  H   H39       1.0  0.9020095610742881  0.3056181218338959  0.0673338279959757  1.0000
  H   H40       1.0  0.597990438865718  0.6943818787157295  0.5673338277609435  1.0000
  H   H41       1.0  0.19987836015517477  0.9794121126107039  0.10081462708146122  1.0000
  H   H42       1.0  0.30012163982482726  0.02058788705663525  0.6008146273450291  1.0000
  H   H43       1.0  0.6998783601351767  0.520587887331448  0.8991853729470746  1.0000
  H   H44       1.0  0.8001216398048294  0.4794121123358912  0.3991853726835067  1.0000
  H   H45       1.0  0.20470891226054572  0.968949425643868  0.886367148923896  1.0000
  H   H46       1.0  0.29529108771945634  0.03105057402347109  0.38636714915892806  1.0000
  H   H47       1.0  0.7047089122405478  0.5310505742982838  0.11363285110463983  1.0000
  H   H48       1.0  0.7952910876994583  0.4689494253690553  0.6136328508696077  1.0000
  H   H49       1.0  0.43299708829164985  0.6838151825414234  0.9988103893073004  1.0000
  H   H50       1.0  0.06700291168835219  0.3161848171259158  0.49881038954233253  1.0000
  H   H51       1.0  0.9329970882716518  0.8161848174007286  0.0011896107212353477  1.0000
  H   H52       1.0  0.5670029116683543  0.18381518314889694  0.5011896104862033  1.0000
  H   H53       1.0  0.12642893672115327  0.06962350108869844  0.9921339663714984  1.0000
  H   H54       1.0  0.37357106325884876  0.930376499460927  0.4921339661079306  1.0000
  H   H55       1.0  0.6264289367011553  0.43037649918611426  0.007866033657037324  1.0000
  H   H56       1.0  0.8735710632388508  0.5696235004812248  0.5078660339206051  1.0000
  H   H57       1.0  0.40355495794437324  0.6760101723072264  0.11770654567757059  1.0000
  H   H58       1.0  0.0964450420356288  0.3239898273601128  0.6177065454425384  1.0000
  H   H59       1.0  0.9035549579243752  0.8239898276349256  0.8822934543509652  1.0000
  H   H60       1.0  0.5964450420156308  0.17601017291469995  0.3822934545859973  1.0000
  H   H61       1.0  0.2584506801416864  0.775664224712067  0.15879395235617497  1.0000
  H   H62       1.0  0.24154931983831568  0.22433577495527218  0.6587939521211428  1.0000
  H   H63       1.0  0.7584506801216885  0.724335775230085  0.8412060476723607  1.0000
  H   H64       1.0  0.7415493198183176  0.27566422443725425  0.3412060479073929  1.0000
  H   H65       1.0  0.4816939833080066  0.8138652063249652  0.1465534202460437  1.0000
  H   H66       1.0  0.018306016671995412  0.18613479334237398  0.6465534205096115  1.0000
  H   H67       1.0  0.9816939846068407  0.6861347936171868  0.8534465797824922  1.0000
  H   H68       1.0  0.5183060166519975  0.31386520693243875  0.3534465795189242  1.0000
  H   H69       1.0  0.2646988791114128  0.7596196826326833  0.8354271585733138  1.0000
  H   H70       1.0  0.2353011208685892  0.24038031703465576  0.33542715880834595  1.0000
  H   H71       1.0  0.7646988790914149  0.7403803173094684  0.16457284095662192  1.0000
  H   H72       1.0  0.7353011208485912  0.2596196823578707  0.6645728412201898  1.0000
  H   H73       1.0  0.41044208752274963  0.6650221967576068  0.8802185947982099  1.0000
  H   H74       1.0  0.08955791245725236  0.33497780290973234  0.380218595033242  1.0000
  H   H75       1.0  0.9104420875027517  0.8349778031845452  0.11978140523032585  1.0000
  H   H76       1.0  0.5895579124372544  0.16502219648279404  0.6197814049952938  1.0000
  H   H77       1.0  0.4868396492313408  0.8010489517280005  0.8475752612138856  1.0000
  H   H78       1.0  0.013160350748661245  0.19895104793933857  0.34757526144891765  1.0000
  H   H79       1.0  0.9868396492113428  0.6989510482141513  0.1524247388146502  1.0000
  H   H80       1.0  0.5131603507286633  0.3010489523354742  0.6524247385796181  1.0000
  C   C1        1.0  0.2567863259591707  0.3517282225868179  0.9061888605260873  1.0000
  C   C2        1.0  0.24321367402083133  0.6482717770805213  0.4061888607611194  1.0000
  C   C3        1.0  0.7567863259391727  0.14827177768799485  0.09381113950244849  1.0000
  C   C4        1.0  0.7432136740008333  0.8517282228616306  0.5938111392674164  1.0000
  C   C5        1.0  0.17253121430797688  0.45403008070472606  0.9285010566578562  1.0000
  C   C6        1.0  0.32746878567202514  0.5459699198448994  0.4285010563942883  1.0000
  C   C7        1.0  0.6725312142879789  0.04596991957008667  0.0714989433706796  1.0000
  C   C8        1.0  0.8274687856520272  0.9540300800972524  0.5714989436342475  1.0000
  C   C9        1.0  0.16725833384472485  0.4788479361003881  0.9964783214633969  1.0000
  C   C10       1.0  0.33274166613527717  0.5211520644492373  0.49647832119982904  1.0000
  C   C11       1.0  0.6672583338247269  0.021152064174424567  0.0035216785651388475  1.0000
  C   C12       1.0  0.8327416661152792  0.9788479354929146  0.5035216783301067  1.0000
  C   C13       1.0  0.24743626037534547  0.40059271453639034  0.04085135697677217  1.0000
  C   C14       1.0  0.25256373960465656  0.5994072860132351  0.5408513572403401  1.0000
  C   C15       1.0  0.7474362603553475  0.09940728573842236  0.9591486430517636  1.0000
  C   C16       1.0  0.7525637395846586  0.9005927139289168  0.4591486427881958  1.0000
  C   C17       1.0  0.33178613670377133  0.297925804269327  0.019125856975329772  1.0000
  C   C18       1.0  0.16821386327623075  0.7020741953980121  0.5191258572388976  1.0000
  C   C19       1.0  0.8317861366837733  0.20207419600548576  0.9808741430532061  1.0000
  C   C20       1.0  0.6682138632562328  0.7979258045441396  0.4808741427896381  1.0000
  C   C21       1.0  0.33624544022363745  0.2734982485287239  0.9509493566269986  1.0000
  C   C22       1.0  0.16375455975636458  0.7265017520209016  0.4509493563634307  1.0000
  C   C23       1.0  0.8362454402036396  0.22650175174608886  0.04905064340153722  1.0000
  C   C24       1.0  0.6637545597363665  0.7734982479212503  0.5490506436651051  1.0000
  C   C25       1.0  0.7526970998819476  0.4639266045272214  0.7640824256987647  1.0000
  C   C26       1.0  0.7473029000580586  0.5360733951401178  0.2640824254351969  1.0000
  C   C27       1.0  0.2526970999019455  0.03607339486530502  0.235917574329771  1.0000
  C   C28       1.0  0.24730290007805653  0.9639266048020342  0.735917574593339  1.0000
  C   C29       1.0  0.23528839282043718  0.9338118842513479  0.05481597357236611  1.0000
  C   C30       1.0  0.2647116071595649  0.06618811541599129  0.554815973337334  1.0000
  C   C31       1.0  0.7352883928004391  0.5661881156908041  0.9451840264561696  1.0000
  C   C32       1.0  0.764711607139567  0.43381188485882144  0.4451840266912017  1.0000
  C   C33       1.0  0.2385838732118708  0.9283965800957635  0.9340244237309323  1.0000
  C   C34       1.0  0.26141612676813125  0.07160342045386191  0.43402442396596436  1.0000
  C   C35       1.0  0.7385838731918728  0.5716034198463883  0.06597557629760352  1.0000
  C   C36       1.0  0.7614161267481333  0.42839657982095086  0.5659755760625714  1.0000
  C   C37       1.0  0.32438699036295443  0.8187370309180088  0.935223170798445  1.0000
  C   C38       1.0  0.1756130096170476  0.1812629696316167  0.43522317053487714  1.0000
  C   C39       1.0  0.8243869903429565  0.6812629699064294  0.0647768292300908  1.0000
  C   C40       1.0  0.6756130095970496  0.31873703064319603  0.5647768294936587  1.0000
  C   C41       1.0  0.36475099803135075  0.7685902037093792  0.9973234993092546  1.0000
  C   C42       1.0  0.1352490019486513  0.23140979684024615  0.4973234995442867  1.0000
  C   C43       1.0  0.8647509980113528  0.7314097971150589  0.0026765007192811885  1.0000
  C   C44       1.0  0.6352490019286533  0.26859020343456663  0.5026765004842491  1.0000
  C   C45       1.0  0.3215068035911292  0.8244731193879281  0.057570983846593704  1.0000
  C   C46       1.0  0.17849319638887282  0.17552688116169743  0.5575709836115617  1.0000
  C   C47       1.0  0.8215068035711313  0.6755268805542238  0.9424290161819421  1.0000
  C   C48       1.0  0.6784931963688748  0.32447311911311527  0.4424290164169742  1.0000
  C   C49       1.0  0.19438761523078102  0.9850378747029588  0.9934821458514058  1.0000
  C   C50       1.0  0.305612384749221  0.014962124964380331  0.49348214608643787  1.0000
  C   C51       1.0  0.6943876152107831  0.514962125239193  0.006517854177129978  1.0000
  C   C52       1.0  0.805612384729223  0.4850378753104324  0.5065178539420979  1.0000
  C   C53       1.0  0.36837342743959917  0.769215570913989  0.1233796782278368  1.0000
  C   C54       1.0  0.13162657254040286  0.23078442875335017  0.6233796779928047  1.0000
  C   C55       1.0  0.8683734274196012  0.7307844290281629  0.876620321800699  1.0000
  C   C56       1.0  0.6316265725204049  0.2692155715214625  0.3766203220357311  1.0000
  C   C57       1.0  0.37374422458869194  0.7573108072171044  0.8714329258625142  1.0000
  C   C58       1.0  0.12625577539131008  0.2426891924502347  0.3714329260975463  1.0000
  C   C59       1.0  0.8737442245686939  0.7426891927250475  0.1285670741660216  1.0000
  C   C60       1.0  0.6262557753713122  0.25731080694229164  0.6285670739309895  1.0000
  N   N1        1.0  0.9043171465767814  0.5123337351193222  0.7435833650084636  1.0000
  N   N2        1.0  0.5956828533632247  0.48766626454801687  0.24358336524349558  1.0000
  N   N3        1.0  0.4043171465967794  0.9876662648228296  0.2564166350200723  1.0000
  N   N4        1.0  0.09568285338322262  0.012333735726795868  0.7564166347850402  1.0000
  N   N5        1.0  0.6004273411264232  0.5196329711800024  0.7525518670715056  1.0000
  N   N6        1.0  0.899572658813583  0.48036702848733676  0.2525518673065377  1.0000
  N   N7        1.0  0.1004273411464211  0.9803670287621494  0.24744813295703016  1.0000
  N   N8        1.0  0.39957265883358095  0.01963297090518966  0.7474481327219981  1.0000
  N   N9        1.0  0.7542996258989451  0.3605045612629561  0.7964440273512701  1.0000
  N   N10       1.0  0.745700374041061  0.6394954392866694  0.2964440270877021  1.0000
  N   N11       1.0  0.25429962591894295  0.13949543901185665  0.20355597267726577  1.0000
  N   N12       1.0  0.2457003740610591  0.8605045606554825  0.7035559729408336  1.0000
  O   O1        1.0  0.25098013882763237  0.4327302997398368  0.784670836006467  1.0000
  O   O2        1.0  0.24901986115236963  0.5672696999275024  0.2846708357428991  1.0000
  O   O3        1.0  0.7509801388076344  0.06726970053497595  0.2153291640220688  1.0000
  O   O4        1.0  0.7490198611323716  0.9327303000146495  0.7153291642856366  1.0000
  O   O5        1.0  0.0923083235173111  0.24908835792521905  0.8076007436811461  1.0000
  O   O6        1.0  0.40769167646269094  0.7509116426244064  0.30760074391617825  1.0000
  O   O7        1.0  0.5923083234973131  0.2509116423495937  0.1923992563473896  1.0000
  O   O8        1.0  0.907691676442693  0.7490883573177454  0.6923992561123575  1.0000
  O   O9        1.0  0.41426371596208117  0.24945510141728794  0.8060160433224128  1.0000
  O   O10       1.0  0.0857362840179209  0.7505448982500511  0.30601604355744505  1.0000
  O   O11       1.0  0.9142637159420831  0.2505448988575248  0.19398395670612284  1.0000
  O   O12       1.0  0.585736283997923  0.7494551016921006  0.6939839564710908  1.0000
  S   S1        1.0  0.2538550555465703  0.3183871405847927  0.8197516170418806  1.0000
  S   S2        1.0  0.24614494443343177  0.6816128599648328  0.31975161677831276  1.0000
  S   S3        1.0  0.7538550555265724  0.18161285969002003  0.18024838298665513  1.0000
  S   S4        1.0  0.7461449444134337  0.8183871399773192  0.680248383250223  1.0000
  Br  Br1       1.0  0.2416896528006735  0.4384175386619725  0.13301467136693457  1.0000
  Br  Br2       1.0  0.25831034717932855  0.5615824610053667  0.6330146716305024  1.0000
  Br  Br3       1.0  0.7416896527806756  0.06158246073055391  0.8669853286616012  1.0000
  Br  Br4       1.0  0.7583103471593305  0.9384175389367853  0.36698532839803333  1.0000
