data_image0
_chemical_formula_structural       H84C60N16O12S4I4
_chemical_formula_sum              "H84 C60 N16 O12 S4 I4"
_cell_length_a       7.451483285212819
_cell_length_b       11.97757003555934
_cell_length_c       21.528063877965963
_cell_angle_alpha    90.0
_cell_angle_beta     90.0
_cell_angle_gamma    90.0

_space_group_name_H-M_alt    "P 1"
_space_group_IT_number       1

loop_
  _space_group_symop_operation_xyz
  'x, y, z'

loop_
  _atom_site_type_symbol
  _atom_site_label
  _atom_site_symmetry_multiplicity
  _atom_site_fract_x
  _atom_site_fract_y
  _atom_site_fract_z
  _atom_site_occupancy
  H   H1        1.0  0.09448699044889441  0.1407594332568866  0.23286209704770025  1.0000
  H   H2        1.0  0.4055130092013216  0.8592405671138613  0.7328620970949418  1.0000
  H   H3        1.0  0.594486991441125  0.3592405669284873  0.7671379030467829  1.0000
  H   H4        1.0  0.9055130088515376  0.6407594334422606  0.2671379029995413  1.0000
  H   H5        1.0  0.9768202895179834  0.264999039085291  0.24751533719916924  1.0000
  H   H6        1.0  0.5231797107746794  0.735000961285457  0.7475153367819009  1.0000
  H   H7        1.0  0.4768202898677674  0.23500096110008295  0.7524846628953138  1.0000
  H   H8        1.0  0.023179711124463313  0.7649990384357711  0.2524846628480723  1.0000
  H   H9        1.0  0.5271357150857269  0.25768058302619384  0.25548163834785403  1.0000
  H   H10       1.0  0.972864285206936  0.7423194173445541  0.7554816383950955  1.0000
  H   H11       1.0  0.027135715435510775  0.24231941715918018  0.7445183617466291  1.0000
  H   H12       1.0  0.47286428555671994  0.757680582376674  0.2445183616993875  1.0000
  H   H13       1.0  0.40536486688418183  0.13761886886124347  0.23374111664311162  1.0000
  H   H14       1.0  0.09463513276603423  0.8623811306746105  0.7337411166903531  1.0000
  H   H15       1.0  0.9053648665343978  0.3623811313241305  0.7662588834513715  1.0000
  H   H16       1.0  0.5946351337582649  0.6376188690466174  0.2662588834041299  1.0000
  H   H17       1.0  0.05966183281686082  0.7579979589387573  0.12956755032926562  1.0000
  H   H18       1.0  0.44033816817536986  0.24200204059709665  0.6295675503765071  1.0000
  H   H19       1.0  0.5596618324670769  0.7420020407824707  0.8704324497652175  1.0000
  H   H20       1.0  0.940338167825586  0.25799795875338344  0.3704324497179759  1.0000
  H   H21       1.0  0.374893993997628  0.42479358708774984  0.2732099367291416  1.0000
  H   H22       1.0  0.1251060069946027  0.5752064124481042  0.7732099367763832  1.0000
  H   H23       1.0  0.874893993647844  0.07520641226273021  0.7267900633653415  1.0000
  H   H24       1.0  0.6251060066448187  0.9247935872731239  0.2267900633180999  1.0000
  H   H25       1.0  0.1366120034141533  0.42783439585713057  0.27019500188093953  1.0000
  H   H26       1.0  0.3633879975780774  0.5721656045136174  0.770195001928181  1.0000
  H   H27       1.0  0.6366120030643694  0.07216560432824344  0.7298049977490336  1.0000
  H   H28       1.0  0.8633879972282935  0.9278343952076107  0.22980499770179202  1.0000
  H   H29       1.0  0.02694087234931863  0.7296903540578509  0.016700763340264206  1.0000
  H   H30       1.0  0.4730591273008974  0.27030964547800324  0.5167007633875057  1.0000
  H   H31       1.0  0.5269408719995347  0.7703096456633772  0.9832992367542188  1.0000
  H   H32       1.0  0.9730591269511134  0.22969035470737073  0.48329923670697733  1.0000
  H   H33       1.0  0.36197106492240705  0.01905674100191899  0.9827232290802221  1.0000
  H   H34       1.0  0.13802893472780903  0.9809432593688289  0.4827232290329806  1.0000
  H   H35       1.0  0.8619710645726231  0.48094325918345504  0.017276771014260926  1.0000
  H   H36       1.0  0.6380289343780251  0.519056741187293  0.5172767710615024  1.0000
  H   H37       1.0  0.3909905408741436  0.0487093148500012  0.09564623329213885  1.0000
  H   H38       1.0  0.10900945877607249  0.9512906846858529  0.5956462333393804  1.0000
  H   H39       1.0  0.8909905405243596  0.4512906853353728  0.9043537668023442  1.0000
  H   H40       1.0  0.6090094584262886  0.5487093150353752  0.4043537667551027  1.0000
  H   H41       1.0  0.8145777676298771  0.9865514269521181  0.04780677425680515  1.0000
  H   H42       1.0  0.6854222326627858  0.013448573418629789  0.5478067743040467  1.0000
  H   H43       1.0  0.3145777666376463  0.5134485736040038  0.9521932258376778  1.0000
  H   H44       1.0  0.18542223301256977  0.48655142676674423  0.45219322579043636  1.0000
  H   H45       1.0  0.7990896043229786  0.9057786510778989  0.9440474747383659  1.0000
  H   H46       1.0  0.7009103959696842  0.09422134845795524  0.4440474746911244  1.0000
  H   H47       1.0  0.2990896046727626  0.5942213486433292  0.05595252535611714  1.0000
  H   H48       1.0  0.20091039631946817  0.40577865089252485  0.5559525254033586  1.0000
  H   H49       1.0  0.6509367201595311  0.007047421951981774  0.8566576597199541  1.0000
  H   H50       1.0  0.8490632801331317  0.9929525775838723  0.3566576596727125  1.0000
  H   H51       1.0  0.15093672050931506  0.4929525773984983  0.143342340374529  1.0000
  H   H52       1.0  0.34906327914090096  0.5070474221373558  0.6433423404217705  1.0000
  H   H53       1.0  0.5206290722947251  0.1956829818603976  0.8766119892144737  1.0000
  H   H54       1.0  0.9793709279979377  0.8043170185103503  0.37661198916723226  1.0000
  H   H55       1.0  0.020629072644509024  0.3043170183249764  0.12338801088000932  1.0000
  H   H56       1.0  0.479370927005707  0.6956829812108777  0.6233880109272508  1.0000
  H   H57       1.0  0.52869082425748  0.2786199780166142  0.9806119444678367  1.0000
  H   H58       1.0  0.9713091746931681  0.7213800223541338  0.4806119444205951  1.0000
  H   H59       1.0  0.028690824607263958  0.2213800221687598  0.01938805562664635  1.0000
  H   H60       1.0  0.47130917504295206  0.7786199782019881  0.5193880556738879  1.0000
  H   H61       1.0  0.6701711335661106  0.35784794472294157  0.06552557573204681  1.0000
  H   H62       1.0  0.8298288667265523  0.6421520556478064  0.5655255757792883  1.0000
  H   H63       1.0  0.17017113257387984  0.14215205546243243  0.9344744238979263  1.0000
  H   H64       1.0  0.32982886707633624  0.8578479449083155  0.4344744238506848  1.0000
  H   H65       1.0  0.6159088874435988  0.3170678892901711  0.142503056354265  1.0000
  H   H66       1.0  0.8840911115070493  0.682932110245683  0.6425030564015065  1.0000
  H   H67       1.0  0.11590888779338279  0.18293211089520287  0.857496943740218  1.0000
  H   H68       1.0  0.38409111185683326  0.8170678894755451  0.3574969436929765  1.0000
  H   H69       1.0  0.4549608782895063  0.30008864897713355  0.08227101331730824  1.0000
  H   H70       1.0  0.04503912136070971  0.6999113505587206  0.5822710129000398  1.0000
  H   H71       1.0  0.9549608779397224  0.1999113512082404  0.9177289867771748  1.0000
  H   H72       1.0  0.5450391210109257  0.8000886491625077  0.41772898672993336  1.0000
  H   H73       1.0  0.7121616941060399  0.04049811677660107  0.13836901529490667  1.0000
  H   H74       1.0  0.7878383048446084  0.9595018827592531  0.6383690153421482  1.0000
  H   H75       1.0  0.21216169445582378  0.4595018834087729  0.8616309847995763  1.0000
  H   H76       1.0  0.28783830519439224  0.540498116961975  0.3616309847523349  1.0000
  H   H77       1.0  0.7486445579325586  0.17144011630937683  0.1752142060420341  1.0000
  H   H78       1.0  0.7513554423601042  0.8285598832264772  0.6752142060892756  1.0000
  H   H79       1.0  0.24864455694032786  0.32855988387599716  0.8247857940524489  1.0000
  H   H80       1.0  0.2513554427098882  0.6714401164947508  0.3247857940052074  1.0000
  H   H81       1.0  0.9103350595258382  0.11758142476469617  0.12192269889567028  1.0000
  H   H82       1.0  0.5896649407668245  0.8824185756060517  0.6219226989429119  1.0000
  H   H83       1.0  0.41033505987562224  0.3824185754206778  0.8780773011988128  1.0000
  H   H84       1.0  0.08966494111660853  0.6175814249500702  0.37807730115157123  1.0000
  C   C1        1.0  0.2257463857347909  0.9059091566809018  0.1194550636126678  1.0000
  C   C2        1.0  0.27425361391542513  0.09409084285495235  0.6194550636599093  1.0000
  C   C3        1.0  0.7257463867270216  0.5940908430403263  0.8805449360173053  1.0000
  C   C4        1.0  0.7742536135656412  0.4059091573304216  0.38054493643457377  1.0000
  C   C5        1.0  0.12368559181082259  0.8161682512377382  0.0975234926791924  1.0000
  C   C6        1.0  0.3763144091814081  0.18383174913300981  0.5975234922619239  1.0000
  C   C7        1.0  0.6236855914610386  0.6838317484834899  0.9024765074152907  1.0000
  C   C8        1.0  0.8763144088316243  0.3161682510523642  0.4024765073680492  1.0000
  C   C9        1.0  0.10527012005202352  0.8000184821755891  0.03372933135632291  1.0000
  C   C10       1.0  0.3947298809402072  0.19998151819515889  0.5337293314035644  1.0000
  C   C11       1.0  0.6052701197022395  0.6999815183805329  0.9662706687381601  1.0000
  C   C12       1.0  0.8947298805904232  0.3000184819902151  0.4662706686909186  1.0000
  C   C13       1.0  0.190420444586621  0.8734965163166686  0.9926571121833322  1.0000
  C   C14       1.0  0.30957955640560975  0.12650348405407938  0.49265711213609065  1.0000
  C   C15       1.0  0.690420444236837  0.6265034842394533  0.00734288791115087  1.0000
  C   C16       1.0  0.8095795560558258  0.37349651613129464  0.5073428874938825  1.0000
  C   C17       1.0  0.29289060130229727  0.9630206315434283  0.014528671123097386  1.0000
  C   C18       1.0  0.20710939834791875  0.03697936799242568  0.514528671170339  1.0000
  C   C19       1.0  0.792890602294528  0.5369793681777997  0.9854713289713857  1.0000
  C   C20       1.0  0.7071093979981349  0.4630206321929483  0.4854713289241442  1.0000
  C   C21       1.0  0.3099410589275768  0.9795549660880856  0.07840419972590108  1.0000
  C   C22       1.0  0.1900589407226392  0.020445033447768463  0.5784041997731426  1.0000
  C   C23       1.0  0.8099410585777929  0.5204450336331424  0.921595800368582  1.0000
  C   C24       1.0  0.6900589403728552  0.4795549667376055  0.4215958003213404  1.0000
  C   C25       1.0  0.2524326027453845  0.2772652124045722  0.25068731496675156  1.0000
  C   C26       1.0  0.24756739690483154  0.7227347879661757  0.7506873150139931  1.0000
  C   C27       1.0  0.7524326023956006  0.22273478778080177  0.7493126851277315  1.0000
  C   C28       1.0  0.7475673965550476  0.7772652125899462  0.24931268508048998  1.0000
  C   C29       1.0  0.6695456285731316  0.13922501935277776  0.023731409517179055  1.0000
  C   C30       1.0  0.8304543717195313  0.8607749801830763  0.5237314095644205  1.0000
  C   C31       1.0  0.16954562758090083  0.36077498083259624  0.976268590577304  1.0000
  C   C32       1.0  0.3304543720693152  0.6392250195381517  0.4762685905300625  1.0000
  C   C33       1.0  0.7480564374426829  0.03370524812641158  0.011184645371033246  1.0000
  C   C34       1.0  0.75194356284998  0.9662947514094425  0.5111846454182748  1.0000
  C   C35       1.0  0.24805643779246683  0.4662947512240685  0.9888153547234497  1.0000
  C   C36       1.0  0.2519435618577492  0.5337052483117856  0.48881535467620824  1.0000
  C   C37       1.0  0.739292866821839  0.9875016180147637  0.9519149258459108  1.0000
  C   C38       1.0  0.7607071334708237  0.012498381521090323  0.4519149257986692  1.0000
  C   C39       1.0  0.23929286717162299  0.5124983817064643  0.048085073784062314  1.0000
  C   C40       1.0  0.26070713382060773  0.48750161782938983  0.5480850738313038  1.0000
  C   C41       1.0  0.656528908775547  0.04379532897262691  0.9028544531537519  1.0000
  C   C42       1.0  0.8434710915171159  0.956204671398121  0.40285445310651047  1.0000
  C   C43       1.0  0.1565289077833163  0.45620467121274705  0.09714554694073109  1.0000
  C   C44       1.0  0.3434710918668998  0.5437953283231071  0.5971455469879726  1.0000
  C   C45       1.0  0.5831565050442026  0.14920339306674274  0.9143473947114569  1.0000
  C   C46       1.0  0.9168434952484603  0.8507966064691114  0.41434739512872526  1.0000
  C   C47       1.0  0.0831565053939865  0.35079660711863125  0.08565260491851628  1.0000
  C   C48       1.0  0.41684349559824424  0.6492033932521167  0.5856526049657578  1.0000
  C   C49       1.0  0.5888918503928003  0.196844259979307  0.9733843901981165  1.0000
  C   C50       1.0  0.9111081485578477  0.8031557395565471  0.4733843901508751  1.0000
  C   C51       1.0  0.08889185074258435  0.303155740206067  0.02661560989636645  1.0000
  C   C52       1.0  0.4111081489076317  0.6968442601646809  0.526615609943608  1.0000
  C   C53       1.0  0.5988839146772033  0.29488279421570174  0.09355492353687192  1.0000
  C   C54       1.0  0.9011160856154595  0.7051172053201523  0.5935549235841134  1.0000
  C   C55       1.0  0.09888391502698723  0.20511720596967226  0.9064450765576111  1.0000
  C   C56       1.0  0.4011160859652435  0.7948827944010757  0.4064450765103696  1.0000
  C   C57       1.0  0.765302274960029  0.12548590286158245  0.1316873535897301  1.0000
  C   C58       1.0  0.7346977253326339  0.8745140966742717  0.6316873536369716  1.0000
  C   C59       1.0  0.2653022753098129  0.3745140964888976  0.868312646504753  1.0000
  C   C60       1.0  0.23469772568241787  0.6254859030469564  0.36831264645751144  1.0000
  N   N1        1.0  0.09653350916420339  0.22537016372987054  0.23987208321531184  1.0000
  N   N2        1.0  0.40346649048601263  0.7746298366408774  0.7398720832625534  1.0000
  N   N3        1.0  0.5965335101564342  0.27462983645550343  0.7601279168791713  1.0000
  N   N4        1.0  0.9034664901362287  0.7253701639152446  0.2601279168319297  1.0000
  N   N5        1.0  0.40624518825764816  0.21938752536605707  0.2477672075034723  1.0000
  N   N6        1.0  0.09375481139256789  0.7806124750046909  0.7477672070862038  1.0000
  N   N7        1.0  0.9062451892498788  0.2806124748193169  0.7522327925910107  1.0000
  N   N8        1.0  0.5937548110427839  0.7193875247165371  0.2522327925437692  1.0000
  N   N9        1.0  0.25516551768601275  0.38563745453267956  0.26486443659413483  1.0000
  N   N10       1.0  0.24483448196420327  0.6143625458380685  0.7648644366413764  1.0000
  N   N11       1.0  0.7551655173362288  0.11436254565269444  0.7351355630358383  1.0000
  N   N12       1.0  0.7448344816144193  0.8856374538831596  0.23513556298859678  1.0000
  N   N13       1.0  0.6690582464156479  0.18323825813451045  0.08287459987639957  1.0000
  N   N14       1.0  0.8309417538770149  0.8167617414013436  0.5828745999236411  1.0000
  N   N15       1.0  0.1690582454234172  0.31676174205086355  0.9171254002180835  1.0000
  N   N16       1.0  0.33094175422679883  0.6832382583198845  0.41712540017084193  1.0000
  O   O1        1.0  0.24837490861353267  0.8175610738178168  0.23035112902445284  1.0000
  O   O2        1.0  0.2516250910366834  0.18243892571803733  0.7303511290716943  1.0000
  O   O3        1.0  0.7483749082637488  0.6824389259034113  0.7696488706055203  1.0000
  O   O4        1.0  0.751625092028914  0.31756107446733667  0.26964887055827874  1.0000
  O   O5        1.0  0.08254560688884814  0.9921123520648294  0.2193881046048923  1.0000
  O   O6        1.0  0.41745439276136787  0.007887648305918515  0.7193881046521339  1.0000
  O   O7        1.0  0.5825456065390642  0.5078876476563986  0.7806118954895908  1.0000
  O   O8        1.0  0.917454392411584  0.49211235187945546  0.2806118954423492  1.0000
  O   O9        1.0  0.40936569180170673  0.9927130056179827  0.21070535491316011  1.0000
  O   O10       1.0  0.0906343078485093  0.007286994752765317  0.7107053549604017  1.0000
  O   O11       1.0  0.9093656927939375  0.5072869941032454  0.789294644716813  1.0000
  O   O12       1.0  0.5906343074987254  0.4927130054326087  0.28929464513408143  1.0000
  S   S1        1.0  0.24339210336807482  0.9285217867215453  0.2006436739729758  1.0000
  S   S2        1.0  0.25660789628214126  0.07147821364920279  0.7006436740202173  1.0000
  S   S3        1.0  0.7433921030182908  0.5714782129996829  0.7993563261215072  1.0000
  S   S4        1.0  0.7566078972743719  0.4285217865361712  0.2993563260742657  1.0000
  I   I1        1.0  0.165862452171454  0.8472548087694064  0.8963525712012712  1.0000
  I   I2        1.0  0.33413754747876206  0.15274519076644777  0.39635257115402966  1.0000
  I   I3        1.0  0.6658624531636848  0.6527451909518218  0.10364742889321185  1.0000
  I   I4        1.0  0.8341375471289781  0.3472548094189262  0.6036474289404534  1.0000
