data_image0
_chemical_formula_structural       H80C60N12O12S4Cl4
_chemical_formula_sum              "H80 C60 N12 O12 S4 Cl4"
_cell_length_a       7.341219326631243
_cell_length_b       11.510699411558743
_cell_length_c       21.1171736040906
_cell_angle_alpha    90.0
_cell_angle_beta     90.0
_cell_angle_gamma    90.0

_space_group_name_H-M_alt    "P 1"
_space_group_IT_number       1

loop_
  _space_group_symop_operation_xyz
  'x, y, z'

loop_
  _atom_site_type_symbol
  _atom_site_label
  _atom_site_symmetry_multiplicity
  _atom_site_fract_x
  _atom_site_fract_y
  _atom_site_fract_z
  _atom_site_occupancy
  H   H1        1.0  0.9064855542265524  0.369040465580602  0.7267789353697901  1.0000
  H   H2        1.0  0.5935144457806857  0.6309595342839812  0.22677893546664493  1.0000
  H   H3        1.0  0.40648555467819697  0.13095953478606803  0.27322106443650024  1.0000
  H   H4        1.0  0.09351444487015859  0.8690404650785151  0.7732210643396454  1.0000
  H   H5        1.0  0.021949904073216665  0.25130002153433767  0.7599929214433874  1.0000
  H   H6        1.0  0.4780500954751389  0.7486999783302454  0.2599929215402422  1.0000
  H   H7        1.0  0.5219499036215722  0.24869997796357546  0.24000707883645128  1.0000
  H   H8        1.0  0.978050096385666  0.7513000219010078  0.7400070787395965  1.0000
  H   H9        1.0  0.8585537292334595  0.090553969201325  0.7951615123695964  1.0000
  H   H10       1.0  0.6414462707737786  0.9094460306632582  0.2951615119929029  1.0000
  H   H11       1.0  0.35855372832293253  0.4094460311653451  0.20483848791024228  1.0000
  H   H12       1.0  0.141446271225423  0.590553968699238  0.7048384878133875  1.0000
  H   H13       1.0  0.6175532330921908  0.0944545462553061  0.7968281426042969  1.0000
  H   H14       1.0  0.8824467669150473  0.9055454536092771  0.29682814270115176  1.0000
  H   H15       1.0  0.11755323354383533  0.405545453242607  0.2031718572019934  1.0000
  H   H16       1.0  0.38244676600452016  0.5944545466219762  0.7031718571051386  1.0000
  H   H17       1.0  0.32305245416067485  0.2699407941171519  0.9092508097902183  1.0000
  H   H18       1.0  0.17694754538768062  0.7300592057474313  0.4092508098870731  1.0000
  H   H19       1.0  0.8230524550712021  0.23005920538076122  0.09074919001607211  1.0000
  H   H20       1.0  0.6769475449360361  0.7699407944838219  0.5907491899192173  1.0000
  H   H21       1.0  0.5901358598950925  0.37041100436681673  0.7221861625954444  1.0000
  H   H22       1.0  0.9098641401121457  0.6295889963665233  0.22218616269229918  1.0000
  H   H23       1.0  0.09013586034673696  0.12958899599985335  0.277813837210846  1.0000
  H   H24       1.0  0.4098641405637901  0.8704110038647298  0.7778138371139912  1.0000
  H   H25       1.0  0.46578052607632714  0.2568727819467576  0.7577478795221136  1.0000
  H   H26       1.0  0.034219473472028396  0.7431272179178255  0.25774787961896833  1.0000
  H   H27       1.0  0.9657805256246828  0.24312721755115552  0.24225212028417684  1.0000
  H   H28       1.0  0.5342194743825555  0.7568727823134277  0.7422521206608703  1.0000
  H   H29       1.0  0.28950790944088056  0.27926837328164517  0.02642341633692458  1.0000
  H   H30       1.0  0.21049209010747494  0.720731626582938  0.5264234162400698  1.0000
  H   H31       1.0  0.7895079089892361  0.22073162621626796  0.973576583942914  1.0000
  H   H32       1.0  0.710492091018002  0.7792683736483151  0.4735765840397688  1.0000
  H   H33       1.0  0.04602537738850643  0.9374411062428022  0.025734635239951332  1.0000
  H   H34       1.0  0.4539746221598491  0.06255889362178095  0.5257346351430966  1.0000
  H   H35       1.0  0.546025376936862  0.5625588939884509  0.974265364566339  1.0000
  H   H36       1.0  0.9539746230703762  0.43744110587613216  0.47426536466319386  1.0000
  H   H37       1.0  0.0829247885009524  0.9270631425996857  0.9095867439513423  1.0000
  H   H38       1.0  0.41707521104740314  0.07293685726489753  0.4095867440481971  1.0000
  H   H39       1.0  0.582924788049308  0.5729368576315675  0.09041325585494811  1.0000
  H   H40       1.0  0.9170752119579302  0.42706314223301556  0.5904132562316415  1.0000
  H   H41       1.0  0.3031150250378259  0.7218234959429684  0.8938367673571463  1.0000
  H   H42       1.0  0.1968849745105297  0.27817650479037176  0.3938367674540011  1.0000
  H   H43       1.0  0.8031150259483529  0.7781765042882848  0.10616323244914408  1.0000
  H   H44       1.0  0.6968849740588853  0.22182349557629827  0.6061632328258375  1.0000
  H   H45       1.0  0.3568970416801727  0.8083812553263383  0.9988270559045933  1.0000
  H   H46       1.0  0.14310295923035432  0.19161874453824485  0.49882705600144794  1.0000
  H   H47       1.0  0.8568970412285282  0.6916187449049149  0.0011729439016972404  1.0000
  H   H48       1.0  0.6431029587787099  0.3083812549596683  0.5011729438048425  1.0000
  H   H49       1.0  0.09932640445093562  0.5144797790526316  0.08740411120371075  1.0000
  H   H50       1.0  0.40067359509741995  0.48552022081195145  0.587404111106856  1.0000
  H   H51       1.0  0.5993264039992912  0.9855202211786214  0.9125958890761279  1.0000
  H   H52       1.0  0.9006735960079469  0.014479778685961687  0.4125958891729827  1.0000
  H   H53       1.0  0.049268859014729216  0.42679208138011315  0.9824633172491009  1.0000
  H   H54       1.0  0.4507311405336263  0.57320791848447  0.4824633173459556  1.0000
  H   H55       1.0  0.5492688585630847  0.07320791898655685  0.017536682557189587  1.0000
  H   H56       1.0  0.9507311414441534  0.9267920808780263  0.5175366824603348  1.0000
  H   H57       1.0  0.07955675808258511  0.42648672374072677  0.8699024232315625  1.0000
  H   H58       1.0  0.420443242827942  0.5735132769926133  0.3699024228548691  1.0000
  H   H59       1.0  0.5795567576309407  0.07351327662594324  0.13009757704827615  1.0000
  H   H60       1.0  0.9204432423762976  0.92648672323864  0.6300975769514214  1.0000
  H   H61       1.0  0.26852235061945584  0.5057540382084966  0.8394977061023902  1.0000
  H   H62       1.0  0.23147764892889966  0.4942459616560865  0.3394977061992449  1.0000
  H   H63       1.0  0.7685223501678115  0.9942459611539995  0.1605022937039003  1.0000
  H   H64       1.0  0.7314776498394268  0.005754038710583524  0.6605022940805938  1.0000
  H   H65       1.0  0.047323644008252494  0.5665490364079359  0.8369625889032953  1.0000
  H   H66       1.0  0.4526763569022746  0.43345096345664724  0.33696258900015014  1.0000
  H   H67       1.0  0.547323643556608  0.9334509629545604  0.16303741090299506  1.0000
  H   H68       1.0  0.9526763564506301  0.06654903691002276  0.6630374108061403  1.0000
  H   H69       1.0  0.17072972952234994  0.797898784567104  0.12269892309348103  1.0000
  H   H70       1.0  0.3292702713881771  0.20210121616623608  0.6226989229966262  1.0000
  H   H71       1.0  0.6707297290707055  0.7021012156641493  0.8773010767128093  1.0000
  H   H72       1.0  0.8292702709365326  0.297898784200434  0.3773010768096642  1.0000
  H   H73       1.0  0.40190327093168526  0.7556754171918817  0.11988221375940243  1.0000
  H   H74       1.0  0.09809672997884183  0.24432458267270146  0.6198822136625477  1.0000
  H   H75       1.0  0.9019032704800408  0.7443245830393715  0.8801177865204362  1.0000
  H   H76       1.0  0.5980967295271974  0.25567541769396857  0.38011778661729095  1.0000
  H   H77       1.0  0.23611101002146478  0.6605236066163953  0.1532897323613873  1.0000
  H   H78       1.0  0.26388898952689077  0.33947639324818785  0.6532897322645325  1.0000
  H   H79       1.0  0.7361110109319918  0.8394763936148579  0.8467102674449032  1.0000
  H   H80       1.0  0.7638889890752463  0.16052360624972525  0.34671026754175793  1.0000
  C   C1        1.0  0.2064101891770268  0.09767423158240139  0.9027122117472846  1.0000
  C   C2        1.0  0.2935898103713287  0.9023257682821818  0.4027122118441393  1.0000
  C   C3        1.0  0.7064101887253824  0.4023257679155118  0.0972877880590059  1.0000
  C   C4        1.0  0.7935898112818559  0.5976742319490714  0.5972877884356994  1.0000
  C   C5        1.0  0.26366452136612867  0.19719717967099798  0.9349854322443677  1.0000
  C   C6        1.0  0.23633547818222686  0.8028028210623421  0.43498543234122244  1.0000
  C   C7        1.0  0.7636645209144842  0.30280282069567205  0.06501456756192275  1.0000
  C   C8        1.0  0.7363354790927539  0.6971971791689111  0.565014567465068  1.0000
  C   C9        1.0  0.24447834891531411  0.2025427488497233  0.0006385059029579663  1.0000
  C   C10       1.0  0.25552165063304144  0.7974572510148599  0.5006385058061031  1.0000
  C   C11       1.0  0.7444783484636696  0.2974572515169468  0.9993614939033324  1.0000
  C   C12       1.0  0.7555216515435685  0.7025427483476364  0.49936149400018726  1.0000
  C   C13       1.0  0.16759095665986232  0.10813026519918938  0.032589848570771233  1.0000
  C   C14       1.0  0.3324090428884932  0.8918697346653939  0.5325898489474646  1.0000
  C   C15       1.0  0.6675909562082178  0.39186973429872374  0.9674101512355192  1.0000
  C   C16       1.0  0.8324090437990204  0.6081302655658595  0.467410151332374  1.0000
  C   C17       1.0  0.10829073817697875  0.00935799260745471  0.00032134603461731745  1.0000
  C   C18       1.0  0.3917092613713768  0.9906420072571285  0.5003213459377625  1.0000
  C   C19       1.0  0.6082907377253343  0.49064200775921535  0.9996786542452213  1.0000
  C   C20       1.0  0.8917092622819038  0.5093579921053678  0.4996786538685279  1.0000
  C   C21       1.0  0.12865103438251235  0.004020812145743678  0.9349779634418206  1.0000
  C   C22       1.0  0.3713489651658432  0.9959791885875965  0.4349779630651272  1.0000
  C   C23       1.0  0.6286510339308679  0.49597918822092635  0.065022036838018  1.0000
  C   C24       1.0  0.8713489660763702  0.5040208116436568  0.5650220367411631  1.0000
  C   C25       1.0  0.7433666203382896  0.23644630292986177  0.7579926324467663  1.0000
  C   C26       1.0  0.7566333796689487  0.7635536969347214  0.25799263207007284  1.0000
  C   C27       1.0  0.24336662078993399  0.26355369656805133  0.24200736783307236  1.0000
  C   C28       1.0  0.25663338012059306  0.7364463032965317  0.7420073677362176  1.0000
  C   C29       1.0  0.1707671088714459  0.5672351120074837  0.9299161922974429  1.0000
  C   C30       1.0  0.3292328920390812  0.4327648887258564  0.42991619239429774  1.0000
  C   C31       1.0  0.6707671084198015  0.9327648882237696  0.07008380750884746  1.0000
  C   C32       1.0  0.8292328915874367  0.06723511164081365  0.5700838074119927  1.0000
  C   C33       1.0  0.2565191633995426  0.6758432664993494  0.9361703232941411  1.0000
  C   C34       1.0  0.2434808361488129  0.3241567333652337  0.43617032339099593  1.0000
  C   C35       1.0  0.7565191629478981  0.8241567337319038  0.06382967651214926  1.0000
  C   C36       1.0  0.74348083705934  0.1758432661326794  0.5638296764152945  1.0000
  C   C37       1.0  0.2866390181759652  0.7251439092934916  0.9956093151560473  1.0000
  C   C38       1.0  0.21336098137239026  0.27485609057109156  0.4956093147793539  1.0000
  C   C39       1.0  0.7866390190864924  0.7748560909377616  0.004390685123791352  1.0000
  C   C40       1.0  0.7133609809207457  0.2251439097955785  0.5043906850269366  1.0000
  C   C41       1.0  0.23085243126466923  0.6686877386678007  0.0512726262661526  1.0000
  C   C42       1.0  0.2691475682836863  0.3313122611967824  0.5512726261692977  1.0000
  C   C43       1.0  0.7308524321751962  0.8313122615634525  0.9487273740136861  1.0000
  C   C44       1.0  0.7691475678320419  0.1686877391698876  0.44872737411054087  1.0000
  C   C45       1.0  0.14530895925289167  0.5605938639593212  0.04512476564645056  1.0000
  C   C46       1.0  0.35469104029546383  0.439406135905262  0.5451247655495958  1.0000
  C   C47       1.0  0.6453089588012472  0.939406136271932  0.95487523415984  1.0000
  C   C48       1.0  0.8546910412059909  0.06059386359265113  0.4548752342566946  1.0000
  C   C49       1.0  0.11630620636855533  0.5110349840334705  0.9855607999532885  1.0000
  C   C50       1.0  0.38369379317980024  0.4889650158311127  0.48556080005014335  1.0000
  C   C51       1.0  0.6163062059169109  0.9889650161977827  0.014439199853001872  1.0000
  C   C52       1.0  0.8836937940903272  0.011034984535557367  0.5144392002296952  1.0000
  C   C53       1.0  0.1399001043701673  0.5133902657614232  0.8658996361358677  1.0000
  C   C54       1.0  0.3600998965403598  0.48660973410316  0.3658996362327225  1.0000
  C   C55       1.0  0.6399001039185228  0.9866097336010732  0.1341003636704227  1.0000
  C   C56       1.0  0.8600998960887153  0.01339026626351005  0.6341003635735679  1.0000
  C   C57       1.0  0.2617873413791464  0.7231433688244323  0.11512799655769546  1.0000
  C   C58       1.0  0.2382126595313807  0.27685663104015085  0.6151279964608406  1.0000
  C   C59       1.0  0.761787340927502  0.7768566314068209  0.8848720037221433  1.0000
  C   C60       1.0  0.7382126590797363  0.22314336845776225  0.384872003818998  1.0000
  N   N1        1.0  0.9031947493990272  0.28478608838557895  0.742397702169913  1.0000
  N   N2        1.0  0.596805250608211  0.7152139114790041  0.24239770226676774  1.0000
  N   N3        1.0  0.40319474985067166  0.21521391111233415  0.25760229763637743  1.0000
  N   N4        1.0  0.0968052510598554  0.784786088752249  0.7576022975395227  1.0000
  N   N5        1.0  0.7393668365566661  0.1351924435136709  0.7887252608830966  1.0000
  N   N6        1.0  0.7606331634505721  0.8648075572196693  0.28872526097995144  1.0000
  N   N7        1.0  0.23936683700831057  0.36480755685299915  0.21127473892319376  1.0000
  N   N8        1.0  0.260633162540045  0.635192443011584  0.711274738826339  1.0000
  N   N9        1.0  0.5873808352731431  0.28916053065008956  0.7418706084305384  1.0000
  N   N10       1.0  0.912619164734095  0.7108394692144935  0.24187060852739328  1.0000
  N   N11       1.0  0.08738083572478754  0.21083946884782354  0.2581293913757519  1.0000
  N   N12       1.0  0.412619163823568  0.7891605310167598  0.758129391278897  1.0000
  O   O1        1.0  0.2484576919508811  0.2035166748987992  0.7942586368069167  1.0000
  O   O2        1.0  0.2515423075974744  0.796483324965784  0.29425863690377135  1.0000
  O   O3        1.0  0.7484576914992367  0.2964833254678708  0.20574136299937387  1.0000
  O   O4        1.0  0.7515423085080015  0.7035166743967123  0.7057413629025191  1.0000
  O   O5        1.0  0.40753025306667556  0.018345796588862852  0.8104836793445046  1.0000
  O   O6        1.0  0.09246974784385147  0.9816542032757203  0.31048367944135935  1.0000
  O   O7        1.0  0.9075302526150312  0.4816542037778072  0.1895163209353341  1.0000
  O   O8        1.0  0.5924697473922069  0.5183457969555328  0.6895163208384794  1.0000
  O   O9        1.0  0.07812462814173718  0.019854618023515198  0.7962360221702641  1.0000
  O   O10       1.0  0.42187537140661835  0.9801453818410679  0.296236022267119  1.0000
  O   O11       1.0  0.5781246276900927  0.48014538234315485  0.20376397810957445  1.0000
  O   O12       1.0  0.9218753723171454  0.5198546183901852  0.7037639780127196  1.0000
  S   S1        1.0  0.23746470884966203  0.08479174071906648  0.8198361122838134  1.0000
  S   S2        1.0  0.26253529069869347  0.9152082591455166  0.31983611238066817  1.0000
  S   S3        1.0  0.7374647083980176  0.41520825964760355  0.18016388752247706  1.0000
  S   S4        1.0  0.762535290247049  0.5847917402169797  0.6801638874256223  1.0000
  Cl  Cl1       1.0  0.14630953826751847  0.11202265161273857  0.11421903637391966  1.0000
  Cl  Cl2       1.0  0.3536904612808371  0.8879773482518445  0.6142190362770649  1.0000
  Cl  Cl3       1.0  0.6463095391780456  0.3879773487539314  0.8857809634323708  1.0000
  Cl  Cl4       1.0  0.8536904608291926  0.6120226519794086  0.3857809635292256  1.0000
