data_image0
_chemical_formula_structural       H8C4S2I2
_chemical_formula_sum              "H8 C4 S2 I2"
_cell_length_a       5.570537254945354
_cell_length_b       6.281351285815367
_cell_length_c       6.819559727344245
_cell_angle_alpha    100.08595917445821
_cell_angle_beta     94.67566110840536
_cell_angle_gamma    94.71227214462554

_space_group_name_H-M_alt    "P 1"
_space_group_IT_number       1

loop_
  _space_group_symop_operation_xyz
  'x, y, z'

loop_
  _atom_site_type_symbol
  _atom_site_label
  _atom_site_symmetry_multiplicity
  _atom_site_fract_x
  _atom_site_fract_y
  _atom_site_fract_z
  _atom_site_occupancy
  H   H1        1.0  0.7822249863556305  0.22119848515784513  0.34088940499710463  1.0000
  H   H2        1.0  0.2177750129359053  0.7788015160562541  0.6591105945499158  1.0000
  H   H3        1.0  0.5090603387438962  0.1711346604328582  0.4513481124466296  1.0000
  H   H4        1.0  0.49093966219241303  0.8288653391823342  0.5486518871050867  1.0000
  H   H5        1.0  0.43456971777138237  0.30882659210119234  0.12505956941989244  1.0000
  H   H6        1.0  0.5654302813693578  0.6911734075153371  0.8749404301263317  1.0000
  H   H7        1.0  0.6171851515672246  0.554820781114465  0.23215006842200508  1.0000
  H   H8        1.0  0.3828148475735155  0.44517921850206443  0.7678499311242191  1.0000
  C   C1        1.0  0.6319575064984405  0.2984468556596368  0.40982153668614807  1.0000
  C   C2        1.0  0.36804249443786885  0.7015531439555558  0.5901784628655682  1.0000
  C   C3        1.0  0.49909135833129403  0.4195267125975187  0.2663093276586631  1.0000
  C   C4        1.0  0.5009086411304701  0.5804732889131662  0.7336906733848995  1.0000
  S   S1        1.0  0.7706571183249837  0.4786880163485518  0.6348487576168372  1.0000
  S   S2        1.0  0.22934288098598488  0.5213119835645632  0.365151243425929  1.0000
  I   I1        1.0  0.9217813138551154  0.15232515854960457  0.8808937347835207  1.0000
  I   I2        1.0  0.07821868528562484  0.847674841066925  0.11910626476270338  1.0000
