data_image0
_chemical_formula_structural       H44C16O12S8Br4
_chemical_formula_sum              "H44 C16 O12 S8 Br4"
_cell_length_a       6.761510712066513
_cell_length_b       12.287201072017213
_cell_length_c       10.225134728623372
_cell_angle_alpha    90.0
_cell_angle_beta     90.0
_cell_angle_gamma    90.0

_space_group_name_H-M_alt    "P 1"
_space_group_IT_number       1

loop_
  _space_group_symop_operation_xyz
  'x, y, z'

loop_
  _atom_site_type_symbol
  _atom_site_label
  _atom_site_symmetry_multiplicity
  _atom_site_fract_x
  _atom_site_fract_y
  _atom_site_fract_z
  _atom_site_occupancy
  H   H1        1.0  0.21285547879582245  0.5361686368918869  0.03146176050858854  1.0000
  H   H2        1.0  0.7128554793824878  0.9638313632687828  0.46853823906973624  1.0000
  H   H3        1.0  0.7871445208985488  0.036168636567045304  0.9685382396260432  1.0000
  H   H4        1.0  0.2871445217908429  0.46383136294394123  0.5314617610648955  1.0000
  H   H5        1.0  0.7871445208985488  0.46383136294394123  0.9685382396260432  1.0000
  H   H6        1.0  0.2871445217908429  0.036168636567045304  0.5314617610648955  1.0000
  H   H7        1.0  0.21285547879582245  0.9638313632687828  0.03146176050858854  1.0000
  H   H8        1.0  0.7128554793824878  0.5361686368918869  0.46853823906973624  1.0000
  H   H9        1.0  0.1604814450805422  0.41280002909297997  0.9464785371393292  1.0000
  H   H10       1.0  0.6604814456672076  0.0871999704180066  0.5535214625736274  1.0000
  H   H11       1.0  0.8395185546138291  0.9128000294178216  0.05352146201732044  1.0000
  H   H12       1.0  0.3395185555061231  0.5871999707428481  0.4464785375610043  1.0000
  H   H13       1.0  0.8395185546138291  0.5871999707428481  0.05352146201732044  1.0000
  H   H14       1.0  0.3395185555061231  0.9128000294178216  0.4464785375610043  1.0000
  H   H15       1.0  0.1604814450805422  0.0871999704180066  0.9464785371393292  1.0000
  H   H16       1.0  0.6604814456672076  0.41280002909297997  0.5535214625736274  1.0000
  H   H17       1.0  0.5035394891742218  0.33987482059772295  0.021593290050440826  1.0000
  H   H18       1.0  0.00353949006651586  0.16012517972711857  0.4784067105058662  1.0000
  H   H19       1.0  0.49646051052014945  0.8398748201087095  0.9784067100841909  1.0000
  H   H20       1.0  0.9964605111068148  0.6601251792381051  0.5215932896287656  1.0000
  H   H21       1.0  0.49646051052014945  0.6601251792381051  0.9784067100841909  1.0000
  H   H22       1.0  0.9964605111068148  0.8398748201087095  0.5215932896287656  1.0000
  H   H23       1.0  0.5035394891742218  0.16012517972711857  0.021593290050440826  1.0000
  H   H24       1.0  0.00353949006651586  0.33987482059772295  0.4784067105058662  1.0000
  H   H25       1.0  0.3281669873036168  0.35827570039734696  0.14990743600758077  1.0000
  H   H26       1.0  0.8281669864113227  0.14172429992749455  0.3500925645487262  1.0000
  H   H27       1.0  0.671833013869714  0.8582756999083335  0.850092564127051  1.0000
  H   H28       1.0  0.17183301328304856  0.6417242994384811  0.6499074355859056  1.0000
  H   H29       1.0  0.671833013869714  0.6417242994384811  0.850092564127051  1.0000
  H   H30       1.0  0.17183301328304856  0.8582756999083335  0.6499074355859056  1.0000
  H   H31       1.0  0.3281669873036168  0.14172429992749455  0.14990743600758077  1.0000
  H   H32       1.0  0.8281669864113227  0.35827570039734696  0.3500925645487262  1.0000
  H   H33       1.0  0.43079353032774537  0.3213713348431211  0.7474052990819514  1.0000
  H   H34       1.0  0.9307935294354512  0.17862866548172046  0.7525947016089873  1.0000
  H   H35       1.0  0.5692064693666259  0.8213713343541076  0.25259470105268034  1.0000
  H   H36       1.0  0.06920647025891999  0.678628664992707  0.24740529852564444  1.0000
  H   H37       1.0  0.5692064693666259  0.678628664992707  0.25259470105268034  1.0000
  H   H38       1.0  0.06920647025891999  0.8213713343541076  0.24740529852564444  1.0000
  H   H39       1.0  0.43079353032774537  0.17862866548172046  0.7474052990819514  1.0000
  H   H40       1.0  0.9307935294354512  0.3213713348431211  0.7525947016089873  1.0000
  H   H41       1.0  0.3657537161904703  0.2500000001624208  0.6141998786988624  1.0000
  H   H42       1.0  0.8657537167771356  0.2500000001624208  0.8858001210140942  1.0000
  H   H43       1.0  0.6342462835039009  0.7499999996734072  0.3858001214357694  1.0000
  H   H44       1.0  0.1342462829172356  0.7499999996734072  0.1141998791205376  1.0000
  C   C1        1.0  0.279581275620318  0.46472568378524537  0.9841591037260418  1.0000
  C   C2        1.0  0.7795812762069833  0.035274316539596125  0.5158408959869148  1.0000
  C   C3        1.0  0.7204187240740532  0.964725683296232  0.01584089640859011  1.0000
  C   C4        1.0  0.22041872348738792  0.5352743160505826  0.4841591041477169  1.0000
  C   C5        1.0  0.7204187240740532  0.5352743160505826  0.01584089640859011  1.0000
  C   C6        1.0  0.22041872348738792  0.964725683296232  0.4841591041477169  1.0000
  C   C7        1.0  0.279581275620318  0.035274316539596125  0.9841591037260418  1.0000
  C   C8        1.0  0.7795812762069833  0.46472568378524537  0.5158408959869148  1.0000
  C   C9        1.0  0.41359608659782754  0.40037369626867847  0.07383380268688564  1.0000
  C   C10       1.0  0.9135960857055335  0.09962630324230809  0.42616619689143914  1.0000
  C   C11       1.0  0.5864039145755031  0.9003736965935201  0.9261661974477462  1.0000
  C   C12       1.0  0.08640391398883776  0.5996263035671496  0.5738338022652104  1.0000
  C   C13       1.0  0.5864039145755031  0.5996263035671496  0.9261661974477462  1.0000
  C   C14       1.0  0.08640391398883776  0.9003736965935201  0.5738338022652104  1.0000
  C   C15       1.0  0.41359608659782754  0.09962630324230809  0.07383380268688564  1.0000
  C   C16       1.0  0.9135960857055335  0.40037369626867847  0.42616619689143914  1.0000
  O   O1        1.0  0.530318974959383  0.4191993522210983  0.7904294510052022  1.0000
  O   O2        1.0  0.030318974372717584  0.08080064810374328  0.7095705487077543  1.0000
  O   O3        1.0  0.4696810247349883  0.9191993517320849  0.20957054815144724  1.0000
  O   O4        1.0  0.9696810253216536  0.5808006476147298  0.29042945142687754  1.0000
  O   O5        1.0  0.4696810247349883  0.5808006476147298  0.20957054815144724  1.0000
  O   O6        1.0  0.9696810253216536  0.9191993517320849  0.29042945142687754  1.0000
  O   O7        1.0  0.530318974959383  0.08080064810374328  0.7904294510052022  1.0000
  O   O8        1.0  0.030318974372717584  0.4191993522210983  0.7095705487077543  1.0000
  O   O9        1.0  0.35974029082867376  0.2500000001624208  0.7145870195280762  1.0000
  O   O10       1.0  0.859740291415339  0.2500000001624208  0.7854129801848804  1.0000
  O   O11       1.0  0.6402597088656975  0.7499999996734072  0.28541298060655557  1.0000
  O   O12       1.0  0.14025970827903217  0.7499999996734072  0.21458701897176927  1.0000
  S   S1        1.0  0.40720133521144913  0.5164175464216014  0.8405521636737523  1.0000
  S   S2        1.0  0.9072013357981143  0.9835824537390683  0.6594478370171866  1.0000
  S   S3        1.0  0.5927986644829221  0.016417546910614877  0.1594478364608796  1.0000
  S   S4        1.0  0.09279866389625677  0.4835824534142266  0.3405521631174452  1.0000
  S   S5        1.0  0.5927986644829221  0.4835824534142266  0.1594478364608796  1.0000
  S   S6        1.0  0.09279866389625677  0.016417546910614877  0.3405521631174452  1.0000
  S   S7        1.0  0.40720133521144913  0.9835824537390683  0.8405521636737523  1.0000
  S   S8        1.0  0.9072013357981143  0.5164175464216014  0.6594478370171866  1.0000
  Br  Br1       1.0  0.9040338794541083  0.2500000001624208  0.08495446398063752  1.0000
  Br  Br2       1.0  0.4040338803464025  0.2500000001624208  0.41504553559768725  1.0000
  Br  Br3       1.0  0.09596612024026281  0.7499999996734072  0.9150455361539943  1.0000
  Br  Br4       1.0  0.5959661193479687  0.7499999996734072  0.5849544635589623  1.0000
