data_image0
_chemical_formula_structural       H56C76N8F16I8
_chemical_formula_sum              "H56 C76 N8 F16 I8"
_cell_length_a       20.562270862652298
_cell_length_b       4.312504682373802
_cell_length_c       23.081939399776193
_cell_angle_alpha    90.0
_cell_angle_beta     113.18447936742206
_cell_angle_gamma    90.0

_space_group_name_H-M_alt    "P 1"
_space_group_IT_number       1

loop_
  _space_group_symop_operation_xyz
  'x, y, z'

loop_
  _atom_site_type_symbol
  _atom_site_label
  _atom_site_symmetry_multiplicity
  _atom_site_fract_x
  _atom_site_fract_y
  _atom_site_fract_z
  _atom_site_occupancy
  H   H1        1.0  0.25140637360084245  0.47547181302335983  0.21966425076345417  1.0000
  H   H2        1.0  0.24859362662119663  0.47547181302335983  0.7803357495965743  1.0000
  H   H3        1.0  0.7514063732555274  0.9754718127481367  0.7196642504599243  1.0000
  H   H4        1.0  0.7485936267386653  0.9754718127481367  0.2803357493798444  1.0000
  H   H5        1.0  0.7485936266114117  0.524528186426194  0.7803357495720947  1.0000
  H   H6        1.0  0.7514063735910574  0.524528186426194  0.21966425073897453  1.0000
  H   H7        1.0  0.24859362674845012  0.024528186701417088  0.28033574940432404  1.0000
  H   H8        1.0  0.2514063732653124  0.024528186701417088  0.719664250484404  1.0000
  H   H9        1.0  0.2026127341991374  0.7979253574064257  0.12294655864735815  1.0000
  H   H10       1.0  0.29738726581462516  0.7979253574064257  0.8770534412413697  1.0000
  H   H11       1.0  0.7026127340620989  0.29792535768164874  0.6229465588151287  1.0000
  H   H12       1.0  0.7973872656540393  0.29792535768164874  0.3770534414959328  1.0000
  H   H13       1.0  0.7973872658048403  0.20207464204312814  0.8770534412168903  1.0000
  H   H14       1.0  0.7026127341893524  0.20207464204312814  0.1229465586228785  1.0000
  H   H15       1.0  0.2973872656638242  0.7020746417679051  0.3770534415204124  1.0000
  H   H16       1.0  0.20261273407188388  0.7020746417679051  0.6229465588396084  1.0000
  H   H17       1.0  0.41632682683640687  0.8900279240710878  0.13296480860633822  1.0000
  H   H18       1.0  0.08367317317735573  0.8900279240710878  0.8670351912823898  1.0000
  H   H19       1.0  0.9163268266993684  0.3900279243463108  0.6329648087741088  1.0000
  H   H20       1.0  0.5836731732948243  0.3900279243463108  0.36703519106565996  1.0000
  H   H21       1.0  0.5836731731675708  0.10997207537846616  0.8670351912579102  1.0000
  H   H22       1.0  0.9163268270348984  0.10997207537846616  0.13296480905315902  1.0000
  H   H23       1.0  0.08367317330460917  0.6099720751032431  0.36703519109013955  1.0000
  H   H24       1.0  0.41632682670915333  0.6099720751032431  0.6329648087985884  1.0000
  H   H25       1.0  0.45607589535207355  0.5671509969593114  0.23002649482149942  1.0000
  H   H26       1.0  0.04392410466168898  0.5671509969593114  0.7699735050672285  1.0000
  H   H27       1.0  0.9560758952150351  0.06715099723453445  0.73002649498927  1.0000
  H   H28       1.0  0.543924104987434  0.06715099723453445  0.26997350532179915  1.0000
  H   H29       1.0  0.5439241046519041  0.4328490024902425  0.769973505042749  1.0000
  H   H30       1.0  0.9560758953422885  0.4328490024902425  0.23002649479701975  1.0000
  H   H31       1.0  0.043924104997218966  0.9328490022150193  0.2699735053462788  1.0000
  H   H32       1.0  0.4560758952248201  0.9328490022150193  0.7300264950137497  1.0000
  H   H33       1.0  0.32171468928485947  0.21235749000877732  0.05851113159184761  1.0000
  H   H34       1.0  0.1782853109371795  0.21235749000877732  0.9414888687681807  1.0000
  H   H35       1.0  0.8217146889395446  0.7123574897335543  0.5585111312883178  1.0000
  H   H36       1.0  0.6782853110546481  0.7123574897335543  0.441488868551451  1.0000
  H   H37       1.0  0.6782853109273946  0.7876425094407765  0.9414888687437012  1.0000
  H   H38       1.0  0.8217146892750744  0.7876425094407765  0.05851113156736796  1.0000
  H   H39       1.0  0.1782853110644331  0.2876425097159996  0.4414888685759306  1.0000
  H   H40       1.0  0.3217146889493295  0.2876425097159996  0.5585111313127975  1.0000
  H   H41       1.0  0.23648925913388102  0.2188822110403871  0.06040771802083118  1.0000
  H   H42       1.0  0.263510741088158  0.2188822110403871  0.9395922823391973  1.0000
  H   H43       1.0  0.7364892592748971  0.7188822130840021  0.560407717717309  1.0000
  H   H44       1.0  0.7635107407192956  0.7188822130840021  0.43959228212245977  1.0000
  H   H45       1.0  0.763510741078373  0.7811177884091668  0.9395922823147177  1.0000
  H   H46       1.0  0.7364892591240961  0.7811177884091668  0.06040771799635154  1.0000
  H   H47       1.0  0.26351074072908054  0.2811177886843898  0.43959228214693946  1.0000
  H   H48       1.0  0.23648925928468206  0.2811177886843898  0.5604077177417887  1.0000
  H   H49       1.0  0.20766367854225473  0.7119526577093398  0.0014415185018575207  1.0000
  H   H50       1.0  0.2923363214715079  0.7119526577093398  0.9985584813868706  1.0000
  H   H51       1.0  0.7076636784052164  0.2119526579845628  0.5014415186696282  1.0000
  H   H52       1.0  0.7923363217972529  0.2119526579845628  0.498558481641441  1.0000
  H   H53       1.0  0.7923363214617228  0.2880473417402141  0.9985584813623908  1.0000
  H   H54       1.0  0.7076636785324698  0.2880473417402141  0.0014415184773778722  1.0000
  H   H55       1.0  0.29233632159876133  0.788047341464991  0.4985584811946203  1.0000
  H   H56       1.0  0.20766367841500125  0.788047341464991  0.5014415186941078  1.0000
  C   C1        1.0  0.46474301282110686  0.11005994542798722  0.4370246146787104  1.0000
  C   C2        1.0  0.0352569871926557  0.11005994542798722  0.5629753852100177  1.0000
  C   C3        1.0  0.9647430131703993  0.6100599451527641  0.9370246148464886  1.0000
  C   C4        1.0  0.5352569870320697  0.6100599451527641  0.06297538546458054  1.0000
  C   C5        1.0  0.5352569871828706  0.8899400563404047  0.5629753851855379  1.0000
  C   C6        1.0  0.9647430128113219  0.8899400563404047  0.43702461465423076  1.0000
  C   C7        1.0  0.03525698704185465  0.3899400542967897  0.06297538548906019  1.0000
  C   C8        1.0  0.46474301318018446  0.3899400542967897  0.9370246148709683  1.0000
  C   C9        1.0  0.524127123313708  0.9198268853395224  0.45431996587136564  1.0000
  C   C10       1.0  0.9758728766804844  0.9198268853395224  0.545680033968403  1.0000
  C   C11       1.0  0.024127123682570636  0.4198268856147454  0.9543199660881032  1.0000
  C   C12       1.0  0.47587287633119196  0.4198268856147454  0.04568003380062485  1.0000
  C   C13       1.0  0.47587287669026956  0.08017311411003152  0.5456800339928828  1.0000
  C   C14       1.0  0.024127123323493083  0.08017311411003152  0.4543199658958453  1.0000
  C   C15       1.0  0.9758728763214071  0.5801731138348085  0.045680033776145205  1.0000
  C   C16       1.0  0.5241271236727856  0.5801731138348085  0.9543199660636235  1.0000
  C   C17       1.0  0.5582072230739045  0.8105194376452219  0.5156796098147682  1.0000
  C   C18       1.0  0.9417927769202881  0.8105194376452219  0.48432039002500044  1.0000
  C   C19       1.0  0.05820722341921942  0.3105194356016069  0.015679610118298125  1.0000
  C   C20       1.0  0.44179277659454314  0.3105194356016069  0.9843203897704298  1.0000
  C   C21       1.0  0.4417927769300731  0.18948056412317  0.4843203900494801  1.0000
  C   C22       1.0  0.05820722308368941  0.18948056412317  0.5156796098392479  1.0000
  C   C23       1.0  0.9417927765847582  0.6894805638479469  0.9843203897459503  1.0000
  C   C24       1.0  0.5582072234094344  0.6894805638479469  0.015679610093818474  1.0000
  C   C25       1.0  0.2864123258019022  0.5725324032902664  0.1990372383052198  1.0000
  C   C26       1.0  0.21358767442013682  0.5725324032902664  0.8009627620548087  1.0000
  C   C27       1.0  0.7864123259429183  0.07253240356548958  0.6990372380016977  1.0000
  C   C28       1.0  0.7135876740512743  0.07253240356548958  0.3009627618380711  1.0000
  C   C29       1.0  0.7135876744103519  0.42746759847812543  0.800962762030329  1.0000
  C   C30       1.0  0.7864123257921173  0.42746759847812543  0.1990372382807402  1.0000
  C   C31       1.0  0.21358767406105933  0.9274675982029024  0.3009627618625508  1.0000
  C   C32       1.0  0.28641232595270316  0.9274675982029024  0.6990372380261772  1.0000
  C   C33       1.0  0.2593455686368446  0.7520815996458715  0.14462915985433725  1.0000
  C   C34       1.0  0.24065443137691794  0.7520815996458715  0.8553708400343908  1.0000
  C   C35       1.0  0.7593455684998062  0.2520815999210947  0.6446291600221078  1.0000
  C   C36       1.0  0.7406544314943865  0.2520815999210947  0.3553708398176609  1.0000
  C   C37       1.0  0.7406544313671329  0.2479183998036823  0.8553708400099111  1.0000
  C   C38       1.0  0.7593455686270596  0.2479183998036823  0.14462915982985758  1.0000
  C   C39       1.0  0.24065443150417143  0.7479183995284593  0.3553708398421405  1.0000
  C   C40       1.0  0.2593455685095911  0.7479183995284593  0.6446291600465875  1.0000
  C   C41       1.0  0.3055639487388326  0.873854179313179  0.11906630512891941  1.0000
  C   C42       1.0  0.19443605127492994  0.873854179313179  0.8809336947598086  1.0000
  C   C43       1.0  0.8055639486017941  0.37385417958840206  0.6190663052966899  1.0000
  C   C44       1.0  0.6944360513923985  0.37385417958840206  0.3809336945430787  1.0000
  C   C45       1.0  0.6944360512651448  0.12614582013637488  0.8809336947353289  1.0000
  C   C46       1.0  0.8055639487290476  0.12614582013637488  0.11906630510443976  1.0000
  C   C47       1.0  0.19443605140218342  0.6261458198611518  0.3809336945675583  1.0000
  C   C48       1.0  0.3055639486115791  0.6261458198611518  0.6190663053211696  1.0000
  C   C49       1.0  0.3775807717956105  0.8040367385969716  0.15039670837549282  1.0000
  C   C50       1.0  0.12241922842642862  0.8040367385969716  0.8496032919845358  1.0000
  C   C51       1.0  0.8775807714502956  0.3040367388721946  0.650396708071963  1.0000
  C   C52       1.0  0.6224192285438971  0.3040367388721946  0.3496032917678057  1.0000
  C   C53       1.0  0.6224192284166435  0.19596326085258234  0.8496032919600559  1.0000
  C   C54       1.0  0.8775807717858255  0.19596326085258234  0.15039670835101318  1.0000
  C   C55       1.0  0.12241922855368202  0.6959632628961973  0.3496032917922854  1.0000
  C   C56       1.0  0.37758077146008046  0.6959632628961973  0.6503967080964426  1.0000
  C   C57       1.0  0.4001451371653071  0.6233855979305758  0.2046712962015745  1.0000
  C   C58       1.0  0.09985486284845554  0.6233855979305758  0.7953287036871536  1.0000
  C   C59       1.0  0.9001451370282686  0.12338559820579884  0.7046712963693451  1.0000
  C   C60       1.0  0.5998548631742006  0.12338559820579884  0.29532870394172406  1.0000
  C   C61       1.0  0.5998548628386705  0.3766144015189781  0.7953287036626737  1.0000
  C   C62       1.0  0.900145137155522  0.3766144015189781  0.20467129617709484  1.0000
  C   C63       1.0  0.09985486318398547  0.876614401243755  0.2953287039662037  1.0000
  C   C64       1.0  0.40014513703805354  0.876614401243755  0.7046712963938248  1.0000
  C   C65       1.0  0.27879946453362997  0.0648271017867309  0.05985700186848407  1.0000
  C   C66       1.0  0.22120053568840908  0.0648271017867309  0.9401429984915444  1.0000
  C   C67       1.0  0.7787994646746459  0.5648271015115078  0.5598570015649619  1.0000
  C   C68       1.0  0.7212005353195465  0.5648271015115078  0.44014299827480685  1.0000
  C   C69       1.0  0.7212005356786241  0.935172897662823  0.9401429984670647  1.0000
  C   C70       1.0  0.7787994645238451  0.935172897662823  0.05985700184400443  1.0000
  C   C71       1.0  0.22120053532933157  0.4351728979380461  0.4401429982992865  1.0000
  C   C72       1.0  0.278799464684431  0.4351728979380461  0.5598570015894415  1.0000
  C   C73       1.0  0.24999999985608026  0.8642546650983416  2.2340657533527892e-10  1.0000
  C   C74       1.0  0.7499999999970963  0.3642546653735647  0.4999999999198843  1.0000
  C   C75       1.0  0.7499999998462953  0.13574533435121225  1.9892692674913959e-10  1.0000
  C   C76       1.0  0.2500000000068813  0.6357453340759892  0.49999999994436395  1.0000
  N   N1        1.0  0.35558569470632195  0.5098832887039646  0.22896367857352434  1.0000
  N   N2        1.0  0.1444143053074405  0.5098832887039646  0.7710363213152035  1.0000
  N   N3        1.0  0.8555856945692836  0.009883288979187619  0.728963678741295  1.0000
  N   N4        1.0  0.6444143054249091  0.009883288979187619  0.2710363210984738  1.0000
  N   N5        1.0  0.6444143052976556  0.4901167107455893  0.7710363212907241  1.0000
  N   N6        1.0  0.8555856949048136  0.4901167107455893  0.22896367902034512  1.0000
  N   N7        1.0  0.14441430543469405  0.9901167104703663  0.27103632112295345  1.0000
  N   N8        1.0  0.3555856945790685  0.9901167104703663  0.7289636787657746  1.0000
  F   F1        1.0  0.5505024493650716  0.8379417661318092  0.4108774699179924  1.0000
  F   F2        1.0  0.9494975508373976  0.8379417661318092  0.5891225303930767  1.0000
  F   F3        1.0  0.05050244903932662  0.3379417664070323  0.910877469663422  1.0000
  F   F4        1.0  0.44949755048810497  0.3379417664070323  0.08912253022529854  1.0000
  F   F5        1.0  0.44949755084718246  0.1620582333177447  0.5891225304175564  1.0000
  F   F6        1.0  0.050502449374856526  0.1620582333177447  0.41087746994247204  1.0000
  F   F7        1.0  0.9494975504783201  0.6620582330425216  0.08912253020081888  1.0000
  F   F8        1.0  0.5505024490295416  0.6620582330425216  0.9108774696389421  1.0000
  F   F9        1.0  0.6149676687715849  0.619185164230402  0.5285482570099654  1.0000
  F   F10       1.0  0.8850323312226077  0.619185164230402  0.47145174282980334  1.0000
  F   F11       1.0  0.11496766842229239  0.11918516450562508  0.028548256842187175  1.0000
  F   F12       1.0  0.38503233159147016  0.11918516450562508  0.9714517430465408  1.0000
  F   F13       1.0  0.38503233123239267  0.3808148352191518  0.47145174285428304  1.0000
  F   F14       1.0  0.11496766878136984  0.3808148352191518  0.528548257034445  1.0000
  F   F15       1.0  0.8850323315816854  0.8808148349439288  0.9714517430220613  1.0000
  F   F16       1.0  0.6149676684125075  0.8808148349439288  0.028548256817707528  1.0000
  I   I1        1.0  0.4127084423877693  0.2737022605040478  0.3426581534598557  1.0000
  I   I2        1.0  0.08729155762599324  0.2737022605040478  0.6573418464288724  1.0000
  I   I3        1.0  0.912708442250731  0.7737022602288247  0.8426581536276264  1.0000
  I   I4        1.0  0.5872915579517383  0.7737022602288247  0.1573418466834429  1.0000
  I   I5        1.0  0.5872915576162082  0.7262977389455061  0.6573418464043927  1.0000
  I   I6        1.0  0.9127084423779844  0.7262977389455061  0.34265815343537603  1.0000
  I   I7        1.0  0.08729155796152321  0.22629773922072918  0.15734184670792253  1.0000
  I   I8        1.0  0.41270844226051584  0.22629773922072918  0.842658153652106  1.0000
