data_image0
_chemical_formula_structural       H16C44N4F32I4
_chemical_formula_sum              "H16 C44 N4 F32 I4"
_cell_length_a       5.37402506204518
_cell_length_b       14.055059427301753
_cell_length_c       18.278337975280024
_cell_angle_alpha    113.10004635096399
_cell_angle_beta     90.67378550328449
_cell_angle_gamma    95.26981431035051

_space_group_name_H-M_alt    "P 1"
_space_group_IT_number       1

loop_
  _space_group_symop_operation_xyz
  'x, y, z'

loop_
  _atom_site_type_symbol
  _atom_site_label
  _atom_site_symmetry_multiplicity
  _atom_site_fract_x
  _atom_site_fract_y
  _atom_site_fract_z
  _atom_site_occupancy
  H   H1        1.0  0.4515998750293001  0.33157241585129754  0.5736591030079593  1.0000
  H   H2        1.0  0.5484001244610048  0.6684275838925514  0.426340897020733  1.0000
  H   H3        1.0  0.19218513020882744  0.416569512595414  0.5081221108245941  1.0000
  H   H4        1.0  0.8078148692814776  0.583430487148435  0.4918778892040982  1.0000
  H   H5        1.0  0.5595829841139446  0.29693764451717264  0.29792789139660947  1.0000
  H   H6        1.0  0.4404170155294193  0.7030623559467273  0.7020721086431477  1.0000
  H   H7        1.0  0.8385707873555656  0.2083296375811504  0.3539596326907486  1.0000
  H   H8        1.0  0.1614292121347395  0.7916703621626986  0.6460403673379438  1.0000
  H   H9        1.0  0.19648831745357734  0.1054121143484924  0.7573433069398295  1.0000
  H   H10       1.0  0.8035116820367275  0.8945878853953567  0.24265669308886276  1.0000
  H   H11       1.0  0.4737704944697786  0.02744781809076717  0.8237061016888879  1.0000
  H   H12       1.0  0.5262295051735854  0.9725521823731327  0.17629389835086923  1.0000
  H   H13       1.0  0.8929599449424516  0.9130927683883018  0.6247904260579282  1.0000
  H   H14       1.0  0.10704005656415676  0.08690723208568  0.37520957398642224  1.0000
  H   H15       1.0  0.6397827002484304  0.9874093565865806  0.5500008980544422  1.0000
  H   H16       1.0  0.36021729924187457  0.012590643157268508  0.4499991019742502  1.0000
  C   C1        1.0  0.9098815891525093  0.5377034166418803  0.2654113502993643  1.0000
  C   C2        1.0  0.0901184103377957  0.4622965831019688  0.734588649729328  1.0000
  C   C3        1.0  0.08135530396124217  0.5799964408538367  0.21407949631193685  1.0000
  C   C4        1.0  0.9186446955290626  0.42000355889001234  0.7859205037167555  1.0000
  C   C5        1.0  0.9399904296446978  0.6249453059498709  0.16059813897780598  1.0000
  C   C6        1.0  0.06000956999866614  0.37505469451402895  0.8394018610619511  1.0000
  C   C7        1.0  0.11336713783378256  0.6728189872791962  0.11190149407517688  1.0000
  C   C8        1.0  0.8866328618095815  0.32718101318470355  0.8880985059645803  1.0000
  C   C9        1.0  0.9681650974919201  0.711510437095451  0.054763050024875734  1.0000
  C   C10       1.0  0.03183490191793833  0.2884895623544741  0.9452369494083408  1.0000
  C   C11       1.0  0.1409268895888954  0.7560743466694066  0.0038784671808803866  1.0000
  C   C12       1.0  0.8590731117646538  0.24392565308452438  0.9961215328524055  1.0000
  C   C13       1.0  0.997572777424156  0.795662371680386  0.9472569941343671  1.0000
  C   C14       1.0  0.0024272220661489554  0.20433762806346314  0.052743005894325345  1.0000
  C   C15       1.0  0.16733377349324965  0.8373218217030062  0.8953268464815705  1.0000
  C   C16       1.0  0.8326662261501142  0.1626781787608937  0.10467315355818674  1.0000
  C   C17       1.0  0.4814632288695615  0.3219385824544787  0.5125751722382561  1.0000
  C   C18       1.0  0.5185367706207434  0.6780614172893704  0.4874248277904363  1.0000
  C   C19       1.0  0.3369037408397284  0.369258478425141  0.4758519961173709  1.0000
  C   C20       1.0  0.6630962586505765  0.630741521318708  0.5241480039113214  1.0000
  C   C21       1.0  0.5422722401944446  0.3029690572662863  0.35894663017929146  1.0000
  C   C22       1.0  0.4577277613121638  0.6970309432076955  0.641053369865059  1.0000
  C   C23       1.0  0.6975687538481756  0.2531622082858131  0.39049011590174637  1.0000
  C   C24       1.0  0.3024312475053736  0.7468377914681178  0.6095098841315393  1.0000
  C   C25       1.0  0.6679774873854495  0.26213544696746477  0.46932582513391563  1.0000
  C   C26       1.0  0.3320225122579145  0.7378645534964351  0.5306741749058415  1.0000
  C   C27       1.0  0.8203842082010151  0.21388700077022513  0.5049083070704915  1.0000
  C   C28       1.0  0.1796157912892897  0.786112998973624  0.4950916929582009  1.0000
  C   C29       1.0  0.9550766203593806  0.17486188074923828  0.5376797933390982  1.0000
  C   C30       1.0  0.04492338099416876  0.8251381190046927  0.4623202066941875  1.0000
  C   C31       1.0  0.10592538601914887  0.13397212150455076  0.5743212738998109  1.0000
  C   C32       1.0  0.8940746134711561  0.8660278782392983  0.4256787261288814  1.0000
  C   C33       1.0  0.24356085960619867  0.09693777612239718  0.6078732013182019  1.0000
  C   C34       1.0  0.7564391398841062  0.9030622236214518  0.3921267987104905  1.0000
  C   C35       1.0  0.39532128552069096  0.053698055354839826  0.6476905376686033  1.0000
  C   C36       1.0  0.604678713969614  0.9463019443890093  0.35230946236008903  1.0000
  C   C37       1.0  0.3488940271798253  0.06370653711817115  0.7259053221256108  1.0000
  C   C38       1.0  0.6511059723104796  0.9362934626256777  0.27409467790308156  1.0000
  C   C39       1.0  0.5033938345705847  0.020018461982607552  0.7629018002569024  1.0000
  C   C40       1.0  0.4966061649197202  0.9799815377612414  0.23709819977179009  1.0000
  C   C41       1.0  0.7377965411940349  0.9568637180681036  0.6524587953337806  1.0000
  C   C42       1.0  0.2622034584493292  0.043136282395796255  0.3475412047059766  1.0000
  C   C43       1.0  0.5959430568172636  0.9983161993940372  0.610511340652534  1.0000
  C   C44       1.0  0.40405694267304143  0.0016838003498120936  0.3894886593761585  1.0000
  N   N1        1.0  0.3656056283656272  0.36017922292804483  0.40056891547090323  1.0000
  N   N2        1.0  0.6343943710442311  0.6398207765218803  0.5994310839623134  1.0000
  N   N3        1.0  0.6944498881139949  0.9675642661817168  0.7273267341003035  1.0000
  N   N4        1.0  0.3055501132395545  0.03243573357221426  0.2726732659329823  1.0000
  F   F1        1.0  0.800525292035702  0.6193324857357702  0.31965038387119415  1.0000
  F   F2        1.0  0.19947470737415648  0.38066751371415514  0.6803496155620224  1.0000
  F   F3        1.0  0.7218650584080056  0.4681643145064656  0.21784817600820314  1.0000
  F   F4        1.0  0.2781349410822993  0.5318356852373834  0.7821518240204893  1.0000
  F   F5        1.0  0.25208006575657077  0.6567006799469587  0.2649256527469102  1.0000
  F   F6        1.0  0.7479199355969786  0.34329931980697237  0.7350743472863756  1.0000
  F   F7        1.0  0.2061501880306649  0.5007373436561827  0.16540793990469663  1.0000
  F   F8        1.0  0.7938498116126991  0.4992626568077172  0.8345920601350606  1.0000
  F   F9        1.0  0.8051037439517897  0.7013956644997639  0.20910589938631277  1.0000
  F   F10       1.0  0.19489625553851525  0.29860433524408503  0.7908941006423795  1.0000
  F   F11       1.0  0.7784474434794123  0.5466636095313273  0.10853505010174536  1.0000
  F   F12       1.0  0.22155255601089258  0.4533363902125216  0.891464949926947  1.0000
  F   F13       1.0  0.26194408180522544  0.7559983151765071  0.16524319018549127  1.0000
  F   F14       1.0  0.7380559178381385  0.24400168528739286  0.8347568098542659  1.0000
  F   F15       1.0  0.26163551889603437  0.5999200730326211  0.06772054377742268  1.0000
  F   F16       1.0  0.7383644807473296  0.40007992743127885  0.9322794562623345  1.0000
  F   F17       1.0  0.8297177631335987  0.7883888436108518  0.10078345115827023  1.0000
  F   F18       1.0  0.1702822382199506  0.211611156143079  0.8992165488750155  1.0000
  F   F19       1.0  0.8099570071905  0.6308578701309892  0.003969667673204515  1.0000
  F   F20       1.0  0.19004299229980498  0.36914212961286  0.996030332355488  1.0000
  F   F21       1.0  0.29907047071006165  0.8375840698100515  0.05500952773644285  1.0000
  F   F22       1.0  0.7009295287802434  0.16241592993379753  0.9449904722922496  1.0000
  F   F23       1.0  0.279682842452297  0.6798889540346554  0.9583991149239461  1.0000
  F   F24       1.0  0.7203171570380078  0.32011104570919346  0.04160088510474613  1.0000
  F   F25       1.0  0.8642604338454073  0.8742229249184592  0.9931240080134457  1.0000
  F   F26       1.0  0.13573956766120115  0.12577707555552267  0.006875992030904825  1.0000
  F   F27       1.0  0.834782685560057  0.7157182243754586  0.8969359325727178  1.0000
  F   F28       1.0  0.16521731594655134  0.2842817760985231  0.10306406747163274  1.0000
  F   F29       1.0  0.3316469456252651  0.9182663318641535  0.9437422449751589  1.0000
  F   F30       1.0  0.6683530540180989  0.08173366859974644  0.05625775506459834  1.0000
  F   F31       1.0  0.304539744565678  0.7605699584517234  0.8485645317943582  1.0000
  F   F32       1.0  0.695460254924627  0.23943004129212575  0.15143546823433424  1.0000
  I   I1        1.0  0.11879556578437583  0.46123153892361374  0.3275503592085352  1.0000
  I   I2        1.0  0.8812044338589881  0.5387684615402861  0.6724496408312219  1.0000
  I   I3        1.0  0.9452263764276098  0.8896267314978197  0.8191876969025137  1.0000
  I   I4        1.0  0.05477362492593962  0.1103732682561112  0.18081230313077196  1.0000
