data_image0
_chemical_formula_structural       H112B72C24S8
_chemical_formula_sum              "H112 B72 C24 S8"
_cell_length_a       18.392005740195025
_cell_length_b       10.316177425214553
_cell_length_c       10.584171838603394
_cell_angle_alpha    90.0
_cell_angle_beta     99.52584198370063
_cell_angle_gamma    90.0

_space_group_name_H-M_alt    "P 1"
_space_group_IT_number       1

loop_
  _space_group_symop_operation_xyz
  'x, y, z'

loop_
  _atom_site_type_symbol
  _atom_site_label
  _atom_site_symmetry_multiplicity
  _atom_site_fract_x
  _atom_site_fract_y
  _atom_site_fract_z
  _atom_site_occupancy
  H   H1        1.0  0.6427102043289077  0.7331094356243789  0.9276194056035126  1.0000
  H   H2        1.0  0.35728979534077665  0.7331094356243789  0.5723805936835845  1.0000
  H   H3        1.0  0.1427102043104668  0.23310943587711566  0.9276194060164012  1.0000
  H   H4        1.0  0.857289795449062  0.23310943587711566  0.5723805942287098  1.0000
  H   H5        1.0  0.3572897958258069  0.26689056387014765  0.07238059364759714  1.0000
  H   H6        1.0  0.6427102042699914  0.26689056387014765  0.4276194055650693  1.0000
  H   H7        1.0  0.8572897953901457  0.7668905645867623  0.07238059419026646  1.0000
  H   H8        1.0  0.14271020425155043  0.7668905645867623  0.4276194059779577  1.0000
  H   H9        1.0  0.7774488487990531  0.8109432607811133  0.7974341316875231  1.0000
  H   H10       1.0  0.22255115141457787  0.8109432607811133  0.70256586760203  1.0000
  H   H11       1.0  0.27744884878061216  0.31094326103385006  0.7974341321004117  1.0000
  H   H12       1.0  0.7225511515228633  0.31094326103385006  0.7025658681471554  1.0000
  H   H13       1.0  0.22255115135566153  0.18905673968276454  0.20256586756358666  1.0000
  H   H14       1.0  0.7774488487401366  0.18905673968276454  0.2974341316490797  1.0000
  H   H15       1.0  0.7225511514639469  0.6890567394300279  0.20256586810871208  1.0000
  H   H16       1.0  0.2774488487216958  0.6890567394300279  0.2974341320619682  1.0000
  H   H17       1.0  0.8098665502876412  0.58439495866606  0.6504460244970113  1.0000
  H   H18       1.0  0.1901334500158343  0.58439495866606  0.8495539757505557  1.0000
  H   H19       1.0  0.3098665502692003  0.08439495794944539  0.6504460249098998  1.0000
  H   H20       1.0  0.6901334494903286  0.08439495794944539  0.849553975335211  1.0000
  H   H21       1.0  0.19013344995691792  0.41560504179781793  0.34955397571211233  1.0000
  H   H22       1.0  0.8098665502287248  0.41560504179781793  0.15044602445856792  1.0000
  H   H23       1.0  0.6901334499753589  0.9156050415450812  0.34955397529922383  1.0000
  H   H24       1.0  0.30986655021028386  0.9156050415450812  0.15044602487145645  1.0000
  H   H25       1.0  0.6738441298092526  0.5579626282823735  0.7530654970836121  1.0000
  H   H26       1.0  0.32615587049422284  0.5579626282823735  0.7469345031639548  1.0000
  H   H27       1.0  0.17384412979081168  0.057962628535110125  0.7530654974965008  1.0000
  H   H28       1.0  0.8261558705126638  0.057962628535110125  0.7469345027510663  1.0000
  H   H29       1.0  0.32615587043530647  0.4420373712121532  0.24693450312551146  1.0000
  H   H30       1.0  0.6738441297503363  0.4420373712121532  0.25306549704516884  1.0000
  H   H31       1.0  0.8261558704537474  0.9420373709594165  0.24693450271262288  1.0000
  H   H32       1.0  0.17384412973189528  0.9420373709594165  0.25306549745805734  1.0000
  H   H33       1.0  0.8353325669780403  0.8437166501931288  0.5882300597060959  1.0000
  H   H34       1.0  0.16466743269164413  0.8437166501931288  0.9117699395810012  1.0000
  H   H35       1.0  0.33533256695959934  0.3437166504458655  0.5882300601189844  1.0000
  H   H36       1.0  0.6646674327999296  0.3437166504458655  0.9117699401261266  1.0000
  H   H37       1.0  0.16466743317667437  0.15628334930139773  0.4117699395450139  1.0000
  H   H38       1.0  0.8353325670089684  0.15628334930139773  0.08823006062566638  1.0000
  H   H39       1.0  0.6646674327410131  0.656283349048661  0.41176994008768314  1.0000
  H   H40       1.0  0.3353325669006829  0.656283349048661  0.08823006008054098  1.0000
  H   H41       1.0  0.6642088016736691  0.4792453731860061  0.4897751983904628  1.0000
  H   H42       1.0  0.33579119851197364  0.4792453731860061  0.01022480178021745  1.0000
  H   H43       1.0  0.1642088016552282  0.9792453739026207  0.4897751988033513  1.0000
  H   H44       1.0  0.8357911985304146  0.9792453739026207  0.010224801367328932  1.0000
  H   H45       1.0  0.33579119857088996  0.5207546263085205  0.5102248018186608  1.0000
  H   H46       1.0  0.6642088017325855  0.5207546263085205  0.9897751984289062  1.0000
  H   H47       1.0  0.8357911985893309  0.020754626561257213  0.5102248014057723  1.0000
  H   H48       1.0  0.16420880171414454  0.020754626561257213  0.9897751988417948  1.0000
  H   H49       1.0  0.5396011971926238  0.6310857667189258  0.5799655154423807  1.0000
  H   H50       1.0  0.4603988030210072  0.6310857667189258  0.9200344838471725  1.0000
  H   H51       1.0  0.039601197174182874  0.1310857669716625  0.5799655158552691  1.0000
  H   H52       1.0  0.9603988031292926  0.1310857669716625  0.9200344843922978  1.0000
  H   H53       1.0  0.46039880296209085  0.36891423374495214  0.42003448380872904  1.0000
  H   H54       1.0  0.5396011972235519  0.36891423374495214  0.07996551636195126  1.0000
  H   H55       1.0  0.9603988030703762  0.8689142334922155  0.4200344843538544  1.0000
  H   H56       1.0  0.0396011971152665  0.8689142334922155  0.07996551581682584  1.0000
  H   H57       1.0  0.5854317714508985  0.7603517452916301  0.4767328985943421  1.0000
  H   H58       1.0  0.4145682287347442  0.7603517452916301  0.023267101576338146  1.0000
  H   H59       1.0  0.08543177143245764  0.26035174554436674  0.47673289900723065  1.0000
  H   H60       1.0  0.9145682287531852  0.26035174554436674  0.02326710116344963  1.0000
  H   H61       1.0  0.41456822879366056  0.23964825420289657  0.5232671016147815  1.0000
  H   H62       1.0  0.585431771509815  0.23964825420289657  0.9767328986327856  1.0000
  H   H63       1.0  0.9145682288121015  0.7396482549195111  0.523267101201893  1.0000
  H   H64       1.0  0.08543177149137403  0.7396482549195111  0.976732899045674  1.0000
  H   H65       1.0  0.5417197746321583  0.9238008127610111  0.541708961979454  1.0000
  H   H66       1.0  0.45828022512737054  0.9238008127610111  0.958291038265657  1.0000
  H   H67       1.0  0.04171977461371735  0.42380081204439657  0.5417089623923425  1.0000
  H   H68       1.0  0.9582802251458115  0.42380081204439657  0.9582910378527685  1.0000
  H   H69       1.0  0.4582802250684542  0.07619918770286672  0.4582910382272137  1.0000
  H   H70       1.0  0.5417197745732419  0.07619918770286672  0.04170896194101055  1.0000
  H   H71       1.0  0.9582802250868951  0.57619918745013  0.4582910378143252  1.0000
  H   H72       1.0  0.04171977455480097  0.57619918745013  0.041708962353899065  1.0000
  H   H73       1.0  0.645630907474826  0.9139760505625371  0.5057173806673549  1.0000
  H   H74       1.0  0.3543690928286494  0.9139760505625371  0.9942826195802121  1.0000
  H   H75       1.0  0.14563090745638516  0.4139760508152738  0.5057173810802434  1.0000
  H   H76       1.0  0.8543690928470903  0.4139760508152738  0.9942826191673234  1.0000
  H   H77       1.0  0.35436909276973305  0.08602394893198953  0.4942826195417687  1.0000
  H   H78       1.0  0.6456309074159097  0.08602394893198953  0.005717380628911528  1.0000
  H   H79       1.0  0.854369092788174  0.5860239496486042  0.4942826191288802  1.0000
  H   H80       1.0  0.14563090739746876  0.5860239496486042  0.005717381041800047  1.0000
  H   H81       1.0  0.6985739005508868  0.020079909588768225  0.6469471101497828  1.0000
  H   H82       1.0  0.3014260992086421  0.020079909588768225  0.8530528900953283  1.0000
  H   H83       1.0  0.19857390107639245  0.5200799103053828  0.6469471105651274  1.0000
  H   H84       1.0  0.801426099227083  0.5200799103053828  0.8530528896824396  1.0000
  H   H85       1.0  0.30142609914972573  0.9799200899057583  0.3530528900568848  1.0000
  H   H86       1.0  0.698573901035917  0.9799200899057583  0.14694711011379546  1.0000
  H   H87       1.0  0.8014260991681667  0.47992009015849507  0.3530528896439963  1.0000
  H   H88       1.0  0.1985739010174761  0.47992009015849507  0.14694711052668397  1.0000
  H   H89       1.0  0.5000000000478991  0.48478247357169596  0.24999999960633315  1.0000
  H   H90       1.0  2.945819434422308e-11  0.9847824733189592  0.25000000001922174  1.0000
  H   H91       1.0  0.5000000001068154  0.5152175259228308  0.7499999996447766  1.0000
  H   H92       1.0  8.837457095974268e-11  0.015217526175567405  0.7500000000576651  1.0000
  H   H93       1.0  0.5940189964320852  0.6054020392025303  0.15320935021236676  1.0000
  H   H94       1.0  0.4059810037535575  0.6054020392025303  0.3467906499583135  1.0000
  H   H95       1.0  0.09401899632379983  0.1054020384859158  0.15320934966724137  1.0000
  H   H96       1.0  0.9059810037719984  0.1054020384859158  0.346790649545425  1.0000
  H   H97       1.0  0.4059810038124739  0.39459796126134755  0.8467906499967568  1.0000
  H   H98       1.0  0.5940189964910016  0.39459796126134755  0.6532093502508102  1.0000
  H   H99       1.0  0.9059810038309148  0.8945979610086109  0.8467906495838684  1.0000
  H   H100      1.0  0.0940189963827162  0.8945979610086109  0.6532093497056847  1.0000
  H   H101      1.0  0.5948312763502175  0.8467990564652698  0.15495970301579598  1.0000
  H   H102      1.0  0.40516872383542524  0.8467990564652698  0.34504029715488427  1.0000
  H   H103      1.0  0.09483127633177656  0.3467990567180065  0.1549597034286845  1.0000
  H   H104      1.0  0.9051687233099196  0.3467990567180065  0.3450402967395397  1.0000
  H   H105      1.0  0.405168723350395  0.15320094302925683  0.8450402971908716  1.0000
  H   H106      1.0  0.5948312764091339  0.15320094302925683  0.6549597030542393  1.0000
  H   H107      1.0  0.905168723368836  0.6532009427765202  0.8450402967779831  1.0000
  H   H108      1.0  0.09483127639069293  0.6532009427765202  0.6549597034671278  1.0000
  H   H109      1.0  0.5000000000478991  0.9673448253816217  0.24999999960633315  1.0000
  H   H110      1.0  2.945819434422308e-11  0.4673448256343584  0.25000000001922174  1.0000
  H   H111      1.0  0.5000000001068154  0.03265517508225618  0.7499999996447766  1.0000
  H   H112      1.0  8.837457095974268e-11  0.5326551748295194  0.7500000000576651  1.0000
  B   B1        1.0  0.7358445586148505  0.782696645975151  0.7026728674706448  1.0000
  B   B2        1.0  0.2641554416886249  0.782696645975151  0.7973271327769222  1.0000
  B   B3        1.0  0.23584455859640963  0.28269664525853644  0.7026728678835334  1.0000
  B   B4        1.0  0.7641554417070658  0.28269664525853644  0.7973271323640336  1.0000
  B   B5        1.0  0.26415544162970855  0.2173033544887269  0.29732713273847877  1.0000
  B   B6        1.0  0.7358445585559341  0.2173033544887269  0.20267286743220145  1.0000
  B   B7        1.0  0.7641554416481495  0.7173033542359902  0.29732713232559027  1.0000
  B   B8        1.0  0.23584455853749323  0.7173033542359902  0.20267286784508995  1.0000
  B   B9        1.0  0.7584645848586906  0.6501367234734731  0.6088114142764838  1.0000
  B   B10       1.0  0.24153541535494033  0.6501367234734731  0.8911885850130693  1.0000
  B   B11       1.0  0.25846458484024976  0.15013672275685852  0.6088114146893724  1.0000
  B   B12       1.0  0.7415354154632258  0.15013672275685852  0.8911885855581947  1.0000
  B   B13       1.0  0.2415354152960239  0.3498632769904048  0.39118858497462594  1.0000
  B   B14       1.0  0.7584645847997743  0.3498632769904048  0.10881141423804046  1.0000
  B   B15       1.0  0.7415354154043093  0.849863276737668  0.39118858551975133  1.0000
  B   B16       1.0  0.2584645847813334  0.849863276737668  0.10881141465092896  1.0000
  B   B17       1.0  0.6784036663825964  0.6421648171548602  0.6777460450990209  1.0000
  B   B18       1.0  0.32159633383103453  0.6421648171548602  0.8222539541905322  1.0000
  B   B19       1.0  0.17840366636415547  0.14216481740759687  0.6777460455119094  1.0000
  B   B20       1.0  0.82159633393932  0.14216481740759687  0.8222539547356577  1.0000
  B   B21       1.0  0.3215963337721182  0.35783518233966644  0.3222539541520888  1.0000
  B   B22       1.0  0.6784036663236801  0.35783518233966644  0.1777460450605775  1.0000
  B   B23       1.0  0.8215963338804037  0.8578351830562811  0.32225395469721424  1.0000
  B   B24       1.0  0.1784036663052391  0.8578351830562811  0.17774604547346604  1.0000
  B   B25       1.0  0.6387897304707257  0.7938065392307545  0.705118163751266  1.0000
  B   B26       1.0  0.3612102692888031  0.7938065392307545  0.7948818364938448  1.0000
  B   B27       1.0  0.13878973045228477  0.29380653851413985  0.7051181641641545  1.0000
  B   B28       1.0  0.8612102693072441  0.29380653851413985  0.7948818360809564  1.0000
  B   B29       1.0  0.3612102692298868  0.20619346123312343  0.29488183645540156  1.0000
  B   B30       1.0  0.6387897304118093  0.20619346123312343  0.2051181637128226  1.0000
  B   B31       1.0  0.8612102692483278  0.7061934609803867  0.29488183604251306  1.0000
  B   B32       1.0  0.1387897303933684  0.7061934609803867  0.2051181641257111  1.0000
  B   B33       1.0  0.7626555285868404  0.8148765345440117  0.555391932455649  1.0000
  B   B34       1.0  0.23734447171663509  0.8148765345440117  0.944608067791918  1.0000
  B   B35       1.0  0.26265552856839947  0.31487653382739705  0.5553919328685375  1.0000
  B   B36       1.0  0.7373444711911294  0.31487653382739705  0.9446080673765733  1.0000
  B   B37       1.0  0.23734447165771871  0.18512346591986625  0.4446080677534746  1.0000
  B   B38       1.0  0.7626555285279241  0.18512346591986625  0.055391932417205636  1.0000
  B   B39       1.0  0.7373444716761596  0.6851234656671296  0.44460806734058606  1.0000
  B   B40       1.0  0.2626555285094831  0.6851234656671296  0.055391932830094144  1.0000
  B   B41       1.0  0.6742088378710852  0.5900839215038409  0.5191620334056006  1.0000
  B   B42       1.0  0.3257911618884437  0.5900839215038409  0.9808379668395102  1.0000
  B   B43       1.0  0.17420883776279975  0.0900839217565776  0.5191620328604752  1.0000
  B   B44       1.0  0.8257911619068846  0.0900839217565776  0.9808379664266218  1.0000
  B   B45       1.0  0.32579116182952733  0.40991607896003707  0.4808379668010669  1.0000
  B   B46       1.0  0.6742088378121688  0.40991607896003707  0.019162033367157334  1.0000
  B   B47       1.0  0.8257911618479683  0.9099160787073004  0.48083796638817833  1.0000
  B   B48       1.0  0.17420883770388337  0.9099160787073004  0.019162032822031928  1.0000
  B   B49       1.0  0.5964736029571783  0.6854680312802909  0.5790365075911427  1.0000
  B   B50       1.0  0.40352639734629714  0.6854680312802909  0.9209634926564242  1.0000
  B   B51       1.0  0.0964736029387374  0.18546803056367628  0.5790365080040312  1.0000
  B   B52       1.0  0.9035263968207915  0.18546803056367628  0.9209634922410798  1.0000
  B   B53       1.0  0.40352639728738077  0.314531969183587  0.42096349261798094  1.0000
  B   B54       1.0  0.5964736028982619  0.314531969183587  0.0790365075526993  1.0000
  B   B55       1.0  0.9035263973058216  0.8145319689308504  0.4209634922050924  1.0000
  B   B56       1.0  0.09647360287982103  0.8145319689308504  0.0790365079655878  1.0000
  B   B57       1.0  0.5949764327636821  0.8574190899800308  0.5624918347402321  1.0000
  B   B58       1.0  0.4050235675397935  0.8574190899800308  0.937508165507335  1.0000
  B   B59       1.0  0.09497643274524104  0.35741908926341626  0.5624918351531207  1.0000
  B   B60       1.0  0.9050235670142878  0.35741908926341626  0.9375081650919901  1.0000
  B   B61       1.0  0.40502356748087714  0.14258091048384705  0.43750816546889143  1.0000
  B   B62       1.0  0.5949764327047655  0.14258091048384705  0.062491834701788755  1.0000
  B   B63       1.0  0.905023567499318  0.6425809102311104  0.437508165056003  1.0000
  B   B64       1.0  0.09497643268632466  0.6425809102311104  0.062491835114677284  1.0000
  B   B65       1.0  0.68572321743545  0.9095583202229437  0.6216721249156666  1.0000
  B   B66       1.0  0.31427678223423444  0.9095583202229437  0.8783278743714305  1.0000
  B   B67       1.0  0.18572321741700903  0.40955832047568025  0.6216721253285551  1.0000
  B   B68       1.0  0.8142767823425199  0.40955832047568025  0.8783278749165558  1.0000
  B   B69       1.0  0.31427678280910915  0.09044168024093434  0.37832787529345707  1.0000
  B   B70       1.0  0.6857232173765336  0.09044168024093434  0.12167212487722318  1.0000
  B   B71       1.0  0.8142767822836035  0.5904416799881976  0.3783278748781125  1.0000
  B   B72       1.0  0.18572321735809263  0.5904416799881976  0.1216721252901117  1.0000
  C   C1        1.0  0.5000000000478991  0.5904269497258402  0.24999999960633315  1.0000
  C   C2        1.0  2.945819434422308e-11  0.09042694997857684  0.25000000001922174  1.0000
  C   C3        1.0  0.5000000001068154  0.40957305073803774  0.7499999996447766  1.0000
  C   C4        1.0  8.837457095974268e-11  0.909573050485301  0.7500000000576651  1.0000
  C   C5        1.0  0.5531234547840786  0.6584238638042553  0.19616473035285065  1.0000
  C   C6        1.0  0.44687654540156396  0.6584238638042553  0.3038352698178296  1.0000
  C   C7        1.0  0.053123454765637755  0.158423864056992  0.1961647307657392  1.0000
  C   C8        1.0  0.946876545420005  0.158423864056992  0.30383526940494104  1.0000
  C   C9        1.0  0.44687654546048045  0.34157613569027134  0.8038352698562731  1.0000
  C   C10       1.0  0.5531234542990484  0.34157613569027134  0.6961647303888379  1.0000
  C   C11       1.0  0.9468765454789214  0.8415761364068859  0.8038352694433845  1.0000
  C   C12       1.0  0.05312345473470965  0.8415761364068859  0.6961647298461686  1.0000
  C   C13       1.0  0.553447820589615  0.793856500566117  0.19689237036792923  1.0000
  C   C14       1.0  0.4465521795960278  0.793856500566117  0.303107629802751  1.0000
  C   C15       1.0  0.05344782048132955  0.29385650081885367  0.19689236982280384  1.0000
  C   C16       1.0  0.9465521791603666  0.29385650081885367  0.3031076303454203  1.0000
  C   C17       1.0  0.44655217911099754  0.20614349892840964  0.8031076298387383  1.0000
  C   C18       1.0  0.5534478206485314  0.20614349892840964  0.6968923704063726  1.0000
  C   C19       1.0  0.9465521792192828  0.7061434996450242  0.8031076303838637  1.0000
  C   C20       1.0  0.05344782054024593  0.7061434996450242  0.6968923698612473  1.0000
  C   C21       1.0  0.5000000000478991  0.8616973878592554  0.24999999960633315  1.0000
  C   C22       1.0  2.945819434422308e-11  0.36169738811199215  0.25000000001922174  1.0000
  C   C23       1.0  0.5000000001068154  0.13830261163527116  0.7499999996447766  1.0000
  C   C24       1.0  8.837457095974268e-11  0.6383026113825345  0.7500000000576651  1.0000
  S   S1        1.0  0.6026597876127894  0.8249357343544339  0.8568354566838473  1.0000
  S   S2        1.0  0.3973402126906861  0.8249357343544339  0.6431645435637195  1.0000
  S   S3        1.0  0.10265978759434846  0.32493573363781925  0.8568354570967359  1.0000
  S   S4        1.0  0.897340212709127  0.32493573363781925  0.6431645431508312  1.0000
  S   S5        1.0  0.3973402126317697  0.17506426610944406  0.14316454352527627  1.0000
  S   S6        1.0  0.602659787553873  0.17506426610944406  0.35683545664540395  1.0000
  S   S7        1.0  0.8973402126502105  0.6750642658567074  0.14316454311238777  1.0000
  S   S8        1.0  0.10265978753543206  0.6750642658567074  0.3568354570582925  1.0000
