data_image0
_chemical_formula_structural       H80C96N40O16S8I8
_chemical_formula_sum              "H80 C96 N40 O16 S8 I8"
_cell_length_a       29.29925643430376
_cell_length_b       6.3644195371196375
_cell_length_c       16.40713763249215
_cell_angle_alpha    90.0
_cell_angle_beta     108.78645270534787
_cell_angle_gamma    90.0

_space_group_name_H-M_alt    "P 1"
_space_group_IT_number       1

loop_
  _space_group_symop_operation_xyz
  'x, y, z'

loop_
  _atom_site_type_symbol
  _atom_site_label
  _atom_site_symmetry_multiplicity
  _atom_site_fract_x
  _atom_site_fract_y
  _atom_site_fract_z
  _atom_site_occupancy
  H   H1        1.0  0.09418761534979518  0.42794965732768936  0.608730911132916  1.0000
  H   H2        1.0  0.9058123845046137  0.42794965732768936  0.8912690884533564  1.0000
  H   H3        1.0  0.5941876153247474  0.9279496575539757  0.6087309113062493  1.0000
  H   H4        1.0  0.4058123846461524  0.9279496575539757  0.8912690889238108  1.0000
  H   H5        1.0  0.9058123846113394  0.5720503415536482  0.3912690884919793  1.0000
  H   H6        1.0  0.09418761545652084  0.5720503415536482  0.10873091117153885  1.0000
  H   H7        1.0  0.4058123844117058  0.07205034132736182  0.3912690889631717  1.0000
  H   H8        1.0  0.5941876154314731  0.07205034132736182  0.10873091134487232  1.0000
  H   H9        1.0  0.03428960186665948  0.2920296987274273  0.4733954079158756  1.0000
  H   H10       1.0  0.9657103983176918  0.2920296987274273  0.026604592391430436  1.0000
  H   H11       1.0  0.5342896017251207  0.7920296989537137  0.4733954074454212  1.0000
  H   H12       1.0  0.4657103983427394  0.7920296989537137  0.02660459221809696  1.0000
  H   H13       1.0  0.965710398210966  0.7079703001539102  0.5266045923528075  1.0000
  H   H14       1.0  0.034289601759933806  0.7079703001539102  0.9733954078772526  1.0000
  H   H15       1.0  0.4657103982360138  0.20797029992762386  0.5266045921794741  1.0000
  H   H16       1.0  0.534289601734886  0.20797029992762386  0.9733954080505862  1.0000
  H   H17       1.0  0.025240326999174972  0.4813888308479699  0.3346045253395345  1.0000
  H   H18       1.0  0.9747596731851762  0.4813888308479699  0.1653954749677716  1.0000
  H   H19       1.0  0.5252403268576362  0.9813888310742562  0.33460452486907993  1.0000
  H   H20       1.0  0.47475967286905163  0.9813888310742562  0.1653954747951761  1.0000
  H   H21       1.0  0.9747596730784506  0.5186111680333676  0.6653954749291487  1.0000
  H   H22       1.0  0.025240326892449313  0.5186111680333676  0.8346045253009116  1.0000
  H   H23       1.0  0.4747596731034982  0.01861116780708126  0.6653954747558152  1.0000
  H   H24       1.0  0.5252403267509106  0.01861116780708126  0.8346045248304571  1.0000
  H   H25       1.0  0.15458564346639544  0.405017696423985  0.36679576016968013  1.0000
  H   H26       1.0  0.8454143562602924  0.405017696423985  0.133204239494576  1.0000
  H   H27       1.0  0.6545856437825199  0.9050176966502713  0.36679576034227557  1.0000
  H   H28       1.0  0.34541435640183116  0.9050176966502713  0.13320423996503045  1.0000
  H   H29       1.0  0.8454143561535669  0.5949823040285878  0.6332042394559532  1.0000
  H   H30       1.0  0.15458564370084205  0.5949823040285878  0.8667957601303192  1.0000
  H   H31       1.0  0.3454143562951056  0.09498230380230142  0.6332042399264076  1.0000
  H   H32       1.0  0.6545856436757944  0.09498230380230142  0.8667957603036527  1.0000
  H   H33       1.0  0.21352426772480362  0.4898556108403504  0.511624217210603  1.0000
  H   H34       1.0  0.7864757321296052  0.4898556108403504  0.9883757823756691  1.0000
  H   H35       1.0  0.7135242680409283  0.9898556110666368  0.5116242173831986  1.0000
  H   H36       1.0  0.286475732271144  0.9898556110666368  0.9883757828461237  1.0000
  H   H37       1.0  0.7864757318951585  0.5101443896122224  0.4883757824150301  1.0000
  H   H38       1.0  0.21352426783152928  0.5101443896122224  0.011624217249226016  1.0000
  H   H39       1.0  0.2864757320366973  0.010144389385935974  0.48837578288548456  1.0000
  H   H40       1.0  0.7135242678064816  0.010144389385935974  0.011624217422559494  1.0000
  H   H41       1.0  0.22189550547429643  0.2359447442522946  0.63285560723354  1.0000
  H   H42       1.0  0.7781044943801124  0.2359447442522946  0.8671443923527323  1.0000
  H   H43       1.0  0.7218955054492487  0.7359447429073457  0.6328556074068735  1.0000
  H   H44       1.0  0.27810449452165115  0.7359447429073457  0.8671443928231868  1.0000
  H   H45       1.0  0.778104494486838  0.764055256200278  0.3671443923913552  1.0000
  H   H46       1.0  0.22189550558102208  0.764055256200278  0.1328556072721629  1.0000
  H   H47       1.0  0.27810449451188574  0.26405525597399176  0.36714439221802175  1.0000
  H   H48       1.0  0.7218955055559744  0.26405525597399176  0.13285560744549635  1.0000
  H   H49       1.0  0.21779972973471892  0.7520602675678113  0.6969087592673575  1.0000
  H   H50       1.0  0.782200270236181  0.7520602675678113  0.8030912409627028  1.0000
  H   H51       1.0  0.7177997295931802  0.2520602673415249  0.696908758796903  1.0000
  H   H52       1.0  0.2822002702612287  0.2520602673415249  0.8030912407893693  1.0000
  H   H53       1.0  0.7822002703429066  0.24793973288476145  0.30309124100132573  1.0000
  H   H54       1.0  0.21779972984144455  0.24793973288476145  0.19690875930598034  1.0000
  H   H55       1.0  0.2822002703679543  0.7479397331110478  0.30309124082799227  1.0000
  H   H56       1.0  0.7177997296999058  0.7479397331110478  0.19690875883552586  1.0000
  H   H57       1.0  0.1817458715695676  0.8851421354522349  0.7399659658425365  1.0000
  H   H58       1.0  0.8182541284013323  0.8851421354522349  0.7600340343875238  1.0000
  H   H59       1.0  0.6817458715445199  0.38514213522594853  0.73996596601587  1.0000
  H   H60       1.0  0.3182541284263799  0.38514213522594853  0.7600340342141901  1.0000
  H   H61       1.0  0.8182541285080579  0.11485786500033784  0.2600340344261466  1.0000
  H   H62       1.0  0.18174587167629325  0.11485786500033784  0.23996596588115943  1.0000
  H   H63       1.0  0.3182541281919333  0.6148578652266242  0.26003403425355115  1.0000
  H   H64       1.0  0.6817458715347545  0.6148578652266242  0.23996596541070495  1.0000
  H   H65       1.0  0.18443415179563105  0.6157138773056874  0.7454757416726024  1.0000
  H   H66       1.0  0.8155658480587777  0.6157138773056874  0.75452425791367  1.0000
  H   H67       1.0  0.6844341517705834  0.115713877079401  0.7454757418459358  1.0000
  H   H68       1.0  0.3155658482003165  0.115713877079401  0.7545242583841244  1.0000
  H   H69       1.0  0.8155658481655034  0.3842861231468853  0.2545242579522928  1.0000
  H   H70       1.0  0.1844341519023567  0.3842861231468853  0.24547574171122527  1.0000
  H   H71       1.0  0.31556584830704215  0.8842861233731717  0.2545242584227473  1.0000
  H   H72       1.0  0.6844341518773089  0.8842861233731717  0.24547574188455876  1.0000
  H   H73       1.0  0.15703556414297523  0.7396523033317296  0.647300548839421  1.0000
  H   H74       1.0  0.8429644357114335  0.7396523033317296  0.8526994507468513  1.0000
  H   H75       1.0  0.6570355641179276  0.23965230310544325  0.6473005490127545  1.0000
  H   H76       1.0  0.3429644358529723  0.23965230310544325  0.8526994512173058  1.0000
  H   H77       1.0  0.8429644358181592  0.26034769712084316  0.3526994507854742  1.0000
  H   H78       1.0  0.15703556424970094  0.26034769712084316  0.14730054887804392  1.0000
  H   H79       1.0  0.34296443595969794  0.7603476957758943  0.3526994512559286  1.0000
  H   H80       1.0  0.6570355642246533  0.7603476957758943  0.1473005490513774  1.0000
  C   C1        1.0  0.11034869322710998  0.7870481228940139  0.4769195385449292  1.0000
  C   C2        1.0  0.8896513069572412  0.7870481228940139  0.02308046176237684  1.0000
  C   C3        1.0  0.6103486932020623  0.28704812266772767  0.4769195387182627  1.0000
  C   C4        1.0  0.3896513069822889  0.28704812266772767  0.02308046158904336  1.0000
  C   C5        1.0  0.8896513068505154  0.2129518775585587  0.523080461723754  1.0000
  C   C6        1.0  0.11034869312038433  0.2129518775585587  0.9769195385063063  1.0000
  C   C7        1.0  0.3896513068755632  0.7129518777848451  0.5230804615504204  1.0000
  C   C8        1.0  0.6103486930953366  0.7129518777848451  0.9769195386796399  1.0000
  C   C9        1.0  0.08849495249971788  0.509293421198149  0.5476355043810368  1.0000
  C   C10       1.0  0.9115050476958632  0.509293421198149  0.9523644952044975  1.0000
  C   C11       1.0  0.5884949524746701  0.009293420971862648  0.5476355045543703  1.0000
  C   C12       1.0  0.411505047837402  0.009293420971862648  0.952364495674952  1.0000
  C   C13       1.0  0.9115050474614167  0.4907065792544237  0.4523644952438584  1.0000
  C   C14       1.0  0.08849495226527127  0.4907065792544237  0.04763550442039769  1.0000
  C   C15       1.0  0.41150504760295536  0.9907065794807102  0.4523644957143129  1.0000
  C   C16       1.0  0.5884949522402236  0.9907065794807102  0.04763550459373117  1.0000
  C   C17       1.0  0.055135838875786485  0.43242735554255235  0.4720320281412438  1.0000
  C   C18       1.0  0.9448641611920736  0.43242735554255235  0.02796797152227434  1.0000
  C   C19       1.0  0.5551358388507387  0.9324273557688386  0.4720320283145772  1.0000
  C   C20       1.0  0.4448641613336124  0.9324273557688386  0.027967971992728824  1.0000
  C   C21       1.0  0.944864161085348  0.5675726433387852  0.5279679714836515  1.0000
  C   C22       1.0  0.05513583876906079  0.5675726433387852  0.9720320281026208  1.0000
  C   C23       1.0  0.4448641612268867  0.06757264311249879  0.5279679719541059  1.0000
  C   C24       1.0  0.5551358387440131  0.06757264311249879  0.9720320282759543  1.0000
  C   C25       1.0  0.05039027239853677  0.5363952533438757  0.3953387094271952  1.0000
  C   C26       1.0  0.9496097274446421  0.5363952533438757  0.10466129088084891  1.0000
  C   C27       1.0  0.5503902727146613  0.03639525311758934  0.3953387095997906  1.0000
  C   C28       1.0  0.44960972746968986  0.03639525311758934  0.10466129070751543  1.0000
  C   C29       1.0  0.9496097273379166  0.46360474553746184  0.604661290842226  1.0000
  C   C30       1.0  0.05039027263298338  0.46360474553746184  0.8953387093878342  1.0000
  C   C31       1.0  0.44960972736296423  0.9636047457637482  0.6046612906688925  1.0000
  C   C32       1.0  0.5503902726079357  0.9636047457637482  0.8953387095611678  1.0000
  C   C33       1.0  0.07855469383541744  0.7158352027908369  0.3970556976703775  1.0000
  C   C34       1.0  0.9214453063489337  0.7158352027908369  0.1029443026369285  1.0000
  C   C35       1.0  0.5785546938103697  0.21583520256455058  0.39705569784371103  1.0000
  C   C36       1.0  0.42144530603280916  0.21583520256455058  0.10294430246433303  1.0000
  C   C37       1.0  0.9214453062422081  0.2841647960905006  0.6029443025983056  1.0000
  C   C38       1.0  0.0785546937286918  0.2841647960905006  0.8970556976317547  1.0000
  C   C39       1.0  0.4214453062672558  0.7841647963167869  0.6029443024249721  1.0000
  C   C40       1.0  0.5785546937036441  0.7841647963167869  0.8970556978050881  1.0000
  C   C41       1.0  0.07466285066563969  0.8371340573835347  0.3203566055301408  1.0000
  C   C42       1.0  0.9253371495187115  0.8371340573835347  0.17964339477716526  1.0000
  C   C43       1.0  0.574662850524101  0.3371340571572484  0.3203566050596862  1.0000
  C   C44       1.0  0.4253371495437592  0.3371340571572484  0.17964339460383183  1.0000
  C   C45       1.0  0.9253371494119857  0.162865943069038  0.6796433947385424  1.0000
  C   C46       1.0  0.07466285055891402  0.162865943069038  0.8203566054915178  1.0000
  C   C47       1.0  0.42533714943703355  0.6628659432953244  0.679643394565209  1.0000
  C   C48       1.0  0.5746628504173753  0.6628659432953244  0.8203566050210634  1.0000
  C   C49       1.0  0.10008761152998023  0.04667243701763155  0.3283784908644432  1.0000
  C   C50       1.0  0.8999123885378799  0.04667243701763155  0.17162150879907487  1.0000
  C   C51       1.0  0.6000876115049325  0.5466724372439179  0.3283784910377767  1.0000
  C   C52       1.0  0.3999123882217554  0.5466724372439179  0.1716215086264794  1.0000
  C   C53       1.0  0.8999123884311543  0.9533275634349413  0.6716215087604519  1.0000
  C   C54       1.0  0.10008761142325456  0.9533275634349413  0.8283784908258204  1.0000
  C   C55       1.0  0.399912388456202  0.4533275632086548  0.6716215085871186  1.0000
  C   C56       1.0  0.6000876113982069  0.4533275632086548  0.8283784909991538  1.0000
  C   C57       1.0  0.13266822752548538  0.11276161255780355  0.4110625729944788  1.0000
  C   C58       1.0  0.8673317723176935  0.11276161255780355  0.0889374273135653  1.0000
  C   C59       1.0  0.6326682275004376  0.6127616127840899  0.4110625731678122  1.0000
  C   C60       1.0  0.3673317723427412  0.6127616127840899  0.08893742714023183  1.0000
  C   C61       1.0  0.8673317725521401  0.8872383878947692  0.5889374272742043  1.0000
  C   C62       1.0  0.13266822775993198  0.8872383878947692  0.9110625729551178  1.0000
  C   C63       1.0  0.36733177257718785  0.38723838766848284  0.5889374271008709  1.0000
  C   C64       1.0  0.6326682277348843  0.38723838766848284  0.9110625731284513  1.0000
  C   C65       1.0  0.15923435371678812  0.29954668746787283  0.4212740237966279  1.0000
  C   C66       1.0  0.8407656463510721  0.29954668746787283  0.07872597586689022  1.0000
  C   C67       1.0  0.6592343536917404  0.799546686122924  0.4212740239699614  1.0000
  C   C68       1.0  0.34076564615143845  0.799546686122924  0.0787259763380827  1.0000
  C   C69       1.0  0.8407656462443464  0.7004533129846998  0.5787259758282673  1.0000
  C   C70       1.0  0.15923435361006244  0.7004533129846998  0.921274023758005  1.0000
  C   C71       1.0  0.3407656463858851  0.20045331275841352  0.5787259762987218  1.0000
  C   C72       1.0  0.6592343535850148  0.20045331275841352  0.9212740239313385  1.0000
  C   C73       1.0  0.19181280884586518  0.34713458267709885  0.5013337785674531  1.0000
  C   C74       1.0  0.8081871910085435  0.34713458267709885  0.9986662210188191  1.0000
  C   C75       1.0  0.6918128088208175  0.8471345829033852  0.5013337787407867  1.0000
  C   C76       1.0  0.3081871911500824  0.8471345829033852  0.9986662214892738  1.0000
  C   C77       1.0  0.8081871911152693  0.6528654177754738  0.49866622105744207  1.0000
  C   C78       1.0  0.19181280895259084  0.6528654177754738  0.0013337786060760447  1.0000
  C   C79       1.0  0.3081871909156358  0.1528654175491875  0.49866622152863455  1.0000
  C   C80       1.0  0.6918128089275432  0.1528654175491875  0.0013337787794095207  1.0000
  C   C81       1.0  0.19645866442704973  0.20512024268450735  0.5687712977636635  1.0000
  C   C82       1.0  0.8035413358850224  0.20512024268450735  0.9312287024656589  1.0000
  C   C83       1.0  0.696458664402002  0.7051202429107937  0.5687712979369969  1.0000
  C   C84       1.0  0.3035413355688979  0.7051202429107937  0.9312287022930634  1.0000
  C   C85       1.0  0.8035413356505758  0.7948797561968303  0.4312287025050197  1.0000
  C   C86       1.0  0.19645866419260308  0.7948797561968303  0.06877129780302432  1.0000
  C   C87       1.0  0.3035413356756236  0.2948797559705438  0.43122870233168625  1.0000
  C   C88       1.0  0.6964586645087276  0.2948797559705438  0.0687712979756198  1.0000
  C   C89       1.0  0.1390564680619523  0.9815207252705933  0.4835014731729592  1.0000
  C   C90       1.0  0.8609435316647356  0.9815207252705933  0.016498526491296947  1.0000
  C   C91       1.0  0.6390564683780767  0.48152072504430693  0.48350147334555466  1.0000
  C   C92       1.0  0.3609435316897833  0.48152072504430693  0.01649852631796347  1.0000
  C   C93       1.0  0.8609435315580101  0.018479275181979442  0.516498526452674  1.0000
  C   C94       1.0  0.13905646841288996  0.018479275181979442  0.9835014737773863  1.0000
  C   C95       1.0  0.3609435315830577  0.5184792738370306  0.5164985262793406  1.0000
  C   C96       1.0  0.6390564682713512  0.5184792738370306  0.9835014733069317  1.0000
  N   N1        1.0  0.11523088713866886  0.6811195718190934  0.5500442281340573  1.0000
  N   N2        1.0  0.884769112832231  0.6811195718190934  0.949955772096003  1.0000
  N   N3        1.0  0.6152308871136212  0.18111957316404223  0.5500442283073907  1.0000
  N   N4        1.0  0.38476911285727866  0.18111957316404223  0.9499557719226694  1.0000
  N   N5        1.0  0.8847691129389565  0.3188804270622441  0.44995577213462584  1.0000
  N   N6        1.0  0.11523088724539456  0.3188804270622441  0.05004422817268025  1.0000
  N   N7        1.0  0.3847691126228321  0.8188804272885305  0.44995577196203035  1.0000
  N   N8        1.0  0.6152308872203468  0.8188804272885305  0.05004422834601373  1.0000
  N   N9        1.0  0.04840596752503668  0.7894126731742445  0.24253924636941784  1.0000
  N   N10       1.0  0.9515940322016512  0.7894126731742445  0.25746075329483825  1.0000
  N   N11       1.0  0.5484059674999889  0.289412672947958  0.24253924654275133  1.0000
  N   N12       1.0  0.4515940323431899  0.289412672947958  0.25746075376529276  1.0000
  N   N13       1.0  0.9515940324360977  0.21058732727832835  0.7574607532554775  1.0000
  N   N14       1.0  0.04840596741831103  0.21058732727832835  0.742539246330795  1.0000
  N   N15       1.0  0.4515940325776366  0.7105873275046147  0.7574607537259318  1.0000
  N   N16       1.0  0.5484059677344356  0.7105873275046147  0.7425392465033904  1.0000
  N   N17       1.0  0.08970452247595545  0.15273648355996602  0.257030191476259  1.0000
  N   N18       1.0  0.9102954775919047  0.15273648355996602  0.2429698081872591  1.0000
  N   N19       1.0  0.5897045224509078  0.6527364837862523  0.25703019164959245  1.0000
  N   N20       1.0  0.4102954773922712  0.6527364837862523  0.24296980865845158  1.0000
  N   N21       1.0  0.910295477485179  0.8472635153213715  0.7429698081486361  1.0000
  N   N22       1.0  0.08970452236922978  0.8472635153213715  0.7570301914376361  1.0000
  N   N23       1.0  0.4102954776267178  0.3472635166663204  0.7429698086190907  1.0000
  N   N24       1.0  0.589704522344182  0.3472635166663204  0.7570301916109696  1.0000
  N   N25       1.0  0.17071579188497102  0.028250335942085175  0.5607329665076484  1.0000
  N   N26       1.0  0.8292842080859288  0.028250335942085175  0.9392670337224119  1.0000
  N   N27       1.0  0.6707157918599234  0.5282503361683715  0.5607329666809817  1.0000
  N   N28       1.0  0.3292842081109766  0.5282503361683715  0.9392670335490786  1.0000
  N   N29       1.0  0.8292842081926545  0.9717496645104876  0.43926703376103493  1.0000
  N   N30       1.0  0.17071579199169667  0.9717496645104876  0.06073296654627118  1.0000
  N   N31       1.0  0.3292842082177022  0.4717496642842012  0.43926703358770136  1.0000
  N   N32       1.0  0.6707157919666491  0.4717496642842012  0.06073296671960465  1.0000
  N   N33       1.0  0.1849140791887089  0.7473194125968244  0.7084994049015443  1.0000
  N   N34       1.0  0.8150859206657001  0.7473194125968244  0.7915005946847281  1.0000
  N   N35       1.0  0.6849140791636612  0.24731941237053798  0.7084994050748777  1.0000
  N   N36       1.0  0.31508592080723863  0.24731941237053798  0.7915005951551825  1.0000
  N   N37       1.0  0.8150859207724256  0.2526805878557484  0.29150059472335094  1.0000
  N   N38       1.0  0.18491407929543457  0.2526805878557484  0.2084994049401672  1.0000
  N   N39       1.0  0.3150859209139643  0.7526805880820348  0.29150059519380533  1.0000
  N   N40       1.0  0.6849140792703867  0.7526805880820348  0.20849940511350068  1.0000
  O   O1        1.0  0.07445868278461676  0.9370116261535664  0.11863300558265327  1.0000
  O   O2        1.0  0.9255413169420712  0.9370116261535664  0.3813669940816028  1.0000
  O   O3        1.0  0.5744586831007413  0.4370116259272801  0.11863300575524874  1.0000
  O   O4        1.0  0.42554131696711883  0.4370116259272801  0.38136699390826934  1.0000
  O   O5        1.0  0.9255413168353455  0.06298837272777108  0.88136699404298  1.0000
  O   O6        1.0  0.0744586831355544  0.06298837272777108  0.6186330061870803  1.0000
  O   O7        1.0  0.42554131686039315  0.5629883729540575  0.8813669938696463  1.0000
  O   O8        1.0  0.5744586829940156  0.5629883729540575  0.6186330057166258  1.0000
  O   O9        1.0  0.004974608465672452  0.09696105927663012  0.15003527871570957  1.0000
  O   O10       1.0  0.9950253916021876  0.09696105927663012  0.3499647209478085  1.0000
  O   O11       1.0  0.5049746084406247  0.5969610595029164  0.150035278889043  1.0000
  O   O12       1.0  0.49502539128606315  0.5969610595029164  0.34996472077521307  1.0000
  O   O13       1.0  0.9950253914954621  0.9030389411759426  0.8499647209091857  1.0000
  O   O14       1.0  0.004974608475437812  0.9030389411759426  0.6500352793208746  1.0000
  O   O15       1.0  0.4950253915205097  0.40303894094965625  0.849964720735852  1.0000
  O   O16       1.0  0.5049746086750714  0.40303894094965625  0.6500352788496822  1.0000
  S   S1        1.0  0.051703816410059826  0.9983464529548597  0.18059648699427505  1.0000
  S   S2        1.0  0.948296183433119  0.9983464529548597  0.319403513313769  1.0000
  S   S3        1.0  0.5517038163850122  0.49834645272857336  0.1805964871676085  1.0000
  S   S4        1.0  0.4482961834581668  0.49834645272857336  0.3194035131404355  1.0000
  S   S5        1.0  0.9482961836675657  0.0016535474977130147  0.8194035132744081  1.0000
  S   S6        1.0  0.05170381630333417  0.0016535474977130147  0.6805964869556521  1.0000
  S   S7        1.0  0.4482961836926134  0.5016535477239994  0.8194035131010746  1.0000
  S   S8        1.0  0.5517038166194587  0.5016535477239994  0.6805964871282476  1.0000
  I   I1        1.0  0.1995105401905648  0.2453858409068363  0.81879429621553  1.0000
  I   I2        1.0  0.8004894597803349  0.2453858409068363  0.6812057040145302  1.0000
  I   I3        1.0  0.6995105405066894  0.7453858395618875  0.8187942963881254  1.0000
  I   I4        1.0  0.3004894598053827  0.7453858395618875  0.6812057038411968  1.0000
  I   I5        1.0  0.8004894595458885  0.7546141595457364  0.18120570405389116  1.0000
  I   I6        1.0  0.19951054029729046  0.7546141595457364  0.31879429625415284  1.0000
  I   I7        1.0  0.30048945957093615  0.2546141593194501  0.1812057038805577  1.0000
  I   I8        1.0  0.6995105402722427  0.2546141593194501  0.31879429642748636  1.0000
