data_image0
_chemical_formula_structural       H18B2C50F18
_chemical_formula_sum              "H18 B2 C50 F18"
_cell_length_a       7.407359111642378
_cell_length_b       10.122949713867406
_cell_length_c       12.960349133601795
_cell_angle_alpha    97.93717238624629
_cell_angle_beta     89.97594844180477
_cell_angle_gamma    97.87202971540765

_space_group_name_H-M_alt    "P 1"
_space_group_IT_number       1

loop_
  _space_group_symop_operation_xyz
  'x, y, z'

loop_
  _atom_site_type_symbol
  _atom_site_label
  _atom_site_symmetry_multiplicity
  _atom_site_fract_x
  _atom_site_fract_y
  _atom_site_fract_z
  _atom_site_occupancy
  H   H1        1.0  0.7687146618796752  0.9827869813317911  0.07714132441855259  1.0000
  H   H2        1.0  0.23128533883080307  0.01721301916079398  0.9228586756603815  1.0000
  H   H3        1.0  0.6536942028629986  0.03031435066252538  0.9090519505332953  1.0000
  H   H4        1.0  0.34630579784747956  0.9696856498300598  0.09094804954563866  1.0000
  H   H5        1.0  0.5740292198427354  0.8429324145154936  0.7643188704532358  1.0000
  H   H6        1.0  0.42597078086774276  0.15706758597709147  0.23568112962569826  1.0000
  H   H7        1.0  0.543369019590077  0.6063708842308891  0.694339729246606  1.0000
  H   H8        1.0  0.4566309809355823  0.39362911526470573  0.305660270833767  1.0000
  H   H9        1.0  0.5702612870756476  0.37046829039256746  0.7182933825226884  1.0000
  H   H10       1.0  0.42973871363483057  0.6295317101000176  0.2817066175562457  1.0000
  H   H11       1.0  0.6791316390264911  0.3186154111466687  0.8821235243911929  1.0000
  H   H12       1.0  0.3208683616839871  0.6813845893459165  0.11787647568774125  1.0000
  H   H13       1.0  0.8270790530831922  0.5883946243002545  0.4843986096990825  1.0000
  H   H14       1.0  0.17292094609244354  0.41160537519507745  0.515601390387099  1.0000
  H   H15       1.0  0.7366290608911528  0.34964016728819064  0.5099973155395597  1.0000
  H   H16       1.0  0.263370938284483  0.6503598322071412  0.49000268454662177  1.0000
  H   H17       1.0  0.5916616552963861  0.738962834088082  0.47466755656315784  1.0000
  H   H18       1.0  0.40833834406406844  0.26103716640423996  0.5253324435215848  1.0000
  B   B1        1.0  0.8189820898786546  0.7403747045225898  0.1367717045839715  1.0000
  B   B2        1.0  0.18101791064700484  0.259625294973005  0.8632282954964015  1.0000
  C   C1        1.0  0.7502374482352714  0.7684015933429058  0.03195095701346916  1.0000
  C   C2        1.0  0.24976255247520676  0.2315984071496792  0.968049043065465  1.0000
  C   C3        1.0  0.7317062545944082  0.899549954203564  0.014711414054358747  1.0000
  C   C4        1.0  0.26829374593125116  0.10045004529203096  0.9852885860260142  1.0000
  C   C5        1.0  0.6675345408433778  0.927436310831999  0.9194650162411461  1.0000
  C   C6        1.0  0.33246545986710035  0.07256368966058617  0.08053498383778812  1.0000
  C   C7        1.0  0.6224629787649478  0.8228566592598361  0.8393707809196049  1.0000
  C   C8        1.0  0.37753702041068793  0.17714334023549574  0.1606292191665766  1.0000
  C   C9        1.0  0.5911886609601459  0.582889996694897  0.768338809502668  1.0000
  C   C10       1.0  0.4088113382154899  0.4171100028004348  0.23166119058351348  1.0000
  C   C11       1.0  0.6063297451943641  0.4522803604137752  0.7816826249260266  1.0000
  C   C12       1.0  0.3936702553312953  0.5477196390818196  0.2183173751543464  1.0000
  C   C13       1.0  0.6703530345619001  0.42300875859485204  0.8767218567996014  1.0000
  C   C14       1.0  0.3296469647985544  0.5769912418974702  0.12327814328514138  1.0000
  C   C15       1.0  0.7221690052725543  0.5227211783334229  0.9616512626043737  1.0000
  C   C16       1.0  0.27783099543792383  0.47727882215916223  0.038348737474560336  1.0000
  C   C17       1.0  0.704799677390912  0.6592865171108228  0.9495036000145106  1.0000
  C   C18       1.0  0.29520032196954255  0.34071348338149926  0.05049640007023201  1.0000
  C   C19       1.0  0.6391547574780152  0.6879935583413143  0.8517979414369472  1.0000
  C   C20       1.0  0.3608452418824393  0.31200644215100787  0.1482020586477953  1.0000
  C   C21       1.0  0.8437153072007287  0.5939957835847747  0.14667692266754995  1.0000
  C   C22       1.0  0.156284691974907  0.40600421591055713  0.8533230774186314  1.0000
  C   C23       1.0  0.7930528920082027  0.48998547009429216  0.05999648494823733  1.0000
  C   C24       1.0  0.20694710735225172  0.5100145303980299  0.9400035151365053  1.0000
  C   C25       1.0  0.8156497479302379  0.35809995466816125  0.07534796426344847  1.0000
  C   C26       1.0  0.18435025259542148  0.6419000448274335  0.9246520358169246  1.0000
  C   C27       1.0  0.8812320951846672  0.3273790134800359  0.1684454417147153  1.0000
  C   C28       1.0  0.11876790417578734  0.6726209870122862  0.8315545583700273  1.0000
  C   C29       1.0  0.9280482079547483  0.4275819205322791  0.2521219274605561  1.0000
  C   C30       1.0  0.07195179140570628  0.5724180799600429  0.7478780726241864  1.0000
  C   C31       1.0  0.909372979785225  0.5585687679075032  0.2390894778556383  1.0000
  C   C32       1.0  0.09062702074043437  0.4414312315880916  0.7609105222247348  1.0000
  C   C33       1.0  0.8567841736044067  0.8604761657966029  0.22973796462166732  1.0000
  C   C34       1.0  0.14321582692125262  0.139523833698992  0.7702620354587056  1.0000
  C   C35       1.0  0.03133679776599689  0.9106322643695204  0.26944558001811164  1.0000
  C   C36       1.0  0.9686632027596626  0.0893677351260745  0.7305544200622613  1.0000
  C   C37       1.0  0.06626321148944138  0.016171803870241343  0.3508527935082946  1.0000
  C   C38       1.0  0.9337367876861944  0.9838281956250905  0.6491472065778868  1.0000
  C   C39       1.0  0.921159208778164  0.07578509499022575  0.39585105740668963  1.0000
  C   C40       1.0  0.0788407917474954  0.9242149045053693  0.6041489426736834  1.0000
  C   C41       1.0  0.7443714845488937  0.02930042710774342  0.35878827515485834  1.0000
  C   C42       1.0  0.25562851481156085  0.9706995733845786  0.6412117249298842  1.0000
  C   C43       1.0  0.7159336846758863  0.9238489751912609  0.27657578356223533  1.0000
  C   C44       1.0  0.28406631584977304  0.07615102430433374  0.7234242165181376  1.0000
  C   C45       1.0  0.6838234372191455  0.5494339355703394  0.4908338172813622  1.0000
  C   C46       1.0  0.3161765633065139  0.45056606392525544  0.5091661827990107  1.0000
  C   C47       1.0  0.6328524869946058  0.4152716807971537  0.5053859118857947  1.0000
  C   C48       1.0  0.36714751218102987  0.5847283186981781  0.49461408820038677  1.0000
  C   C49       1.0  0.5512131902142013  0.6341650557782348  0.48538088086188474  1.0000
  C   C50       1.0  0.44878680914625324  0.3658349447140873  0.5146191192228579  1.0000
  F   F1        1.0  0.7773187310589396  0.24848575896399006  0.0013927025316092577  1.0000
  F   F2        1.0  0.22268126830151494  0.7515142415283321  0.9986072975531333  1.0000
  F   F3        1.0  0.9001548512811276  0.1990698724939575  0.1775826525674784  1.0000
  F   F4        1.0  0.09984514807932698  0.8009301279983647  0.8224173475172643  1.0000
  F   F5        1.0  0.9915572666652792  0.3964134103578359  0.3416912698073787  1.0000
  F   F6        1.0  0.008442733860380148  0.6035865891377589  0.6583087302729942  1.0000
  F   F7        1.0  0.9602032681773683  0.6525779839367069  0.3224825112661323  1.0000
  F   F8        1.0  0.03979673099826733  0.34742201555862484  0.677517488820049  1.0000
  F   F9        1.0  0.17571144305566985  0.8533161917410365  0.2290630874424134  1.0000
  F   F10       1.0  0.8242885576548084  0.14668380875154863  0.7709369126365205  1.0000
  F   F11       1.0  0.23718104269533782  0.0598338781875365  0.38836919962353067  1.0000
  F   F12       1.0  0.7628189578303216  0.9401661213080583  0.6116308004568424  1.0000
  F   F13       1.0  0.9520336036337677  0.1771662749168697  0.47565875333382973  1.0000
  F   F14       1.0  0.04796639554186804  0.8228337245784622  0.5243412467523517  1.0000
  F   F15       1.0  0.6040613956045672  0.08765891103538415  0.4021606620848981  1.0000
  F   F16       1.0  0.39593860375588746  0.9123410894569379  0.5978393379998445  1.0000
  F   F17       1.0  0.540798577790487  0.881505153381889  0.24314153968350347  1.0000
  F   F18       1.0  0.45920142273517245  0.11849484611370571  0.7568584603968694  1.0000
