data_image0
_chemical_formula_structural       H32C72N8F16I8
_chemical_formula_sum              "H32 C72 N8 F16 I8"
_cell_length_a       4.475523229471245
_cell_length_b       15.448589441088435
_cell_length_c       24.3133827682581
_cell_angle_alpha    90.0
_cell_angle_beta     93.34924439927072
_cell_angle_gamma    90.0

_space_group_name_H-M_alt    "P 1"
_space_group_IT_number       1

loop_
  _space_group_symop_operation_xyz
  'x, y, z'

loop_
  _atom_site_type_symbol
  _atom_site_label
  _atom_site_symmetry_multiplicity
  _atom_site_fract_x
  _atom_site_fract_y
  _atom_site_fract_z
  _atom_site_occupancy
  H   H1        1.0  0.09780834059669496  0.5563688861547238  0.8532533591106062  1.0000
  H   H2        1.0  0.9021916600268065  0.05636888618995148  0.6467466408699538  1.0000
  H   H3        1.0  0.9021916598606514  0.4436311137748209  0.14674664097649398  1.0000
  H   H4        1.0  0.09780834030844121  0.9436311137395932  0.3532533588051496  1.0000
  H   H5        1.0  0.2633362307040494  0.6841842448015312  0.9101710990887139  1.0000
  H   H6        1.0  0.7366637699194521  0.18418424483675888  0.589828900891846  1.0000
  H   H7        1.0  0.7366637697532971  0.3158157551280135  0.08982890099838627  1.0000
  H   H8        1.0  0.2633362304157957  0.8158157550927858  0.41017109878325736  1.0000
  H   H9        1.0  0.6126297640301375  0.7902813532948565  0.8754712936319566  1.0000
  H   H10       1.0  0.38737023659336406  0.2902813533300842  0.6245287063486032  1.0000
  H   H11       1.0  0.387370236427209  0.20971864663468814  0.12452870645514352  1.0000
  H   H12       1.0  0.6126297638639823  0.7097186465994605  0.3754712937384968  1.0000
  H   H13       1.0  0.8948010266543721  0.8804576956277556  0.8375616187521797  1.0000
  H   H14       1.0  0.10519897409122796  0.3804576956629832  0.6624383816403768  1.0000
  H   H15       1.0  0.10519897380297426  0.11954230430178912  0.1624383813349204  1.0000
  H   H16       1.0  0.8948010263661184  0.6195423042665614  0.3375616184467232  1.0000
  H   H17       1.0  0.23396688208135716  0.9752207939405589  0.7887586731967314  1.0000
  H   H18       1.0  0.7660331163072787  0.47522079397578665  0.7112413267822315  1.0000
  H   H19       1.0  0.7660331161411235  0.02477920598898571  0.2112413268887717  1.0000
  H   H20       1.0  0.2339668817931034  0.524779205953758  0.28875867289127494  1.0000
  H   H21       1.0  0.3988800598272858  0.9336438608199422  0.6961741319400998  1.0000
  H   H22       1.0  0.6011199385613499  0.4336438608551699  0.803825868038863  1.0000
  H   H23       1.0  0.601119938395195  0.06635613910960247  0.3038258681454034  1.0000
  H   H24       1.0  0.3988800618959964  0.5663561390743749  0.19617413204823694  1.0000
  H   H25       1.0  0.29732671276783756  0.5353163045426459  0.7602267606150388  1.0000
  H   H26       1.0  0.702673287855664  0.03531630457787352  0.7397732393655212  1.0000
  H   H27       1.0  0.7026732875674102  0.46468369538689885  0.23977323906006465  1.0000
  H   H28       1.0  0.2973267126016825  0.9646836953516712  0.26022676072157896  1.0000
  H   H29       1.0  0.22441425808256926  0.7958215659030292  0.6524740047508263  1.0000
  H   H30       1.0  0.7755857425409323  0.2958215659382568  0.8475259952297337  1.0000
  H   H31       1.0  0.7755857423747772  0.2041784340265156  0.3475259953362738  1.0000
  H   H32       1.0  0.22441425791641423  0.704178433991288  0.15247400485736656  1.0000
  C   C1        1.0  0.5905394616069444  0.9165037406161042  0.5196074154377834  1.0000
  C   C2        1.0  0.4094605391386557  0.4165037406513318  0.9803925849547731  1.0000
  C   C3        1.0  0.409460538850402  0.08349625931344058  0.48039258464931667  1.0000
  C   C4        1.0  0.5905394613186907  0.5834962592782129  0.019607415132326955  1.0000
  C   C5        1.0  0.605423237191079  0.03233928002975014  0.45187663048506854  1.0000
  C   C6        1.0  0.3945767631001122  0.5323392799945225  0.04812336970857179  1.0000
  C   C7        1.0  0.3945767632662672  0.9676607198997946  0.5481233696020316  1.0000
  C   C8        1.0  0.6054232373572342  0.46766071993502223  0.9518766303785283  1.0000
  C   C9        1.0  0.6952803667903492  0.9510649018170055  0.4713376636843593  1.0000
  C   C10       1.0  0.3047196335008421  0.4510649018522332  0.028662336509281013  1.0000
  C   C11       1.0  0.3047196314321315  0.048935098112539224  0.5286623364011438  1.0000
  C   C12       1.0  0.6952803669565043  0.5489350980773117  0.9713376635778191  1.0000
  C   C13       1.0  0.3376874565092894  0.5419795394219559  0.5411445837649194  1.0000
  C   C14       1.0  0.662312544114212  0.04197953945718348  0.9588554162156405  1.0000
  C   C15       1.0  0.662312543948057  0.4580204605075889  0.45885541632218074  1.0000
  C   C16       1.0  0.33768745634313435  0.9580204604723613  0.04114458387145958  1.0000
  C   C17       1.0  0.5090459397996036  0.46812495002071053  0.5528191646942755  1.0000
  C   C18       1.0  0.49095405858903224  0.9681249499854828  0.9471808352846874  1.0000
  C   C19       1.0  0.4909540584228772  0.5318750499088342  0.4471808353912276  1.0000
  C   C20       1.0  0.5090459417462155  0.031875049944061824  0.05281916439041595  1.0000
  C   C21       1.0  0.3314908098015283  0.572979668063232  0.48726362840003784  1.0000
  C   C22       1.0  0.6685091882547974  0.07297966809845952  0.012736371792005584  1.0000
  C   C23       1.0  0.6685091884209524  0.4270203318663129  0.5127363716854654  1.0000
  C   C24       1.0  0.3314908099676833  0.9270203324783935  0.9872636282934976  1.0000
  C   C25       1.0  0.25748474518185727  0.6021060910105102  0.8376353882762102  1.0000
  C   C26       1.0  0.7425152554416442  0.10210609104573784  0.6623646117043496  1.0000
  C   C27       1.0  0.7425152551533905  0.39789390891903453  0.16236461139889302  1.0000
  C   C28       1.0  0.25748474501570223  0.8978939088838069  0.33763538838275053  1.0000
  C   C29       1.0  0.3502927581994143  0.674542335385269  0.8697169277530832  1.0000
  C   C30       1.0  0.6497072401892214  0.17454233542049663  0.6302830722258796  1.0000
  C   C31       1.0  0.6497072421358335  0.3254576645442757  0.13028307192202015  1.0000
  C   C32       1.0  0.35029275803325916  0.8254576645090481  0.3697169278596234  1.0000
  C   C33       1.0  0.5472640293890514  0.7345790871894942  0.8501677861320187  1.0000
  C   C34       1.0  0.45273597123445014  0.2345790872247218  0.6498322138485411  1.0000
  C   C35       1.0  0.4527359710682951  0.2654209127400506  0.1498322139550813  1.0000
  C   C36       1.0  0.5472640292228963  0.7654209127048229  0.35016778623855904  1.0000
  C   C37       1.0  0.6609119596804099  0.7240273976244619  0.7976751606964118  1.0000
  C   C38       1.0  0.33908804094309153  0.22402739765968957  0.7023248392841481  1.0000
  C   C39       1.0  0.3390880407769365  0.2759726023050828  0.20232483939068838  1.0000
  C   C40       1.0  0.6609119595142549  0.7759726022698551  0.297675160802952  1.0000
  C   C41       1.0  0.8606753882201594  0.7832001546898212  0.7729757894038469  1.0000
  C   C42       1.0  0.13932461016847644  0.28320015472504884  0.727024210575116  1.0000
  C   C43       1.0  0.13932461223718703  0.21679984523972354  0.22702421068325324  1.0000
  C   C44       1.0  0.8606753879319057  0.7167998452044959  0.2729757890983904  1.0000
  C   C45       1.0  0.9648672957983477  0.8614011700386298  0.7971703224816635  1.0000
  C   C46       1.0  0.03513270482515384  0.36140117007385747  0.7028296774988964  1.0000
  C   C47       1.0  0.03513270453690012  0.1385988298909149  0.2028296771934399  1.0000
  C   C48       1.0  0.9648672956321925  0.6385988298556872  0.2971703225882037  1.0000
  C   C49       1.0  0.15530719031885026  0.9147021864932419  0.7697404095618466  1.0000
  C   C50       1.0  0.8446928080697854  0.41470218652846946  0.7302595904171162  1.0000
  C   C51       1.0  0.8446928101384961  0.08529781343630288  0.23025959052525355  1.0000
  C   C52       1.0  0.15530719003059656  0.5852978134010752  0.2697404092563901  1.0000
  C   C53       1.0  0.2486914303607284  0.8913330814123728  0.717305495081005  1.0000
  C   C54       1.0  0.7513085680279074  0.3913330814476004  0.7826945048979579  1.0000
  C   C55       1.0  0.7513085677396536  0.10866691851717196  0.28269450459250134  1.0000
  C   C56       1.0  0.24869143242943897  0.6086669184819443  0.2173054951891422  1.0000
  C   C57       1.0  0.3674911264393711  0.5898069072743791  0.7863344671899545  1.0000
  C   C58       1.0  0.6325088741841303  0.08980690730960685  0.7136655327906054  1.0000
  C   C59       1.0  0.6325088740179753  0.4101930926551655  0.21366553289714565  1.0000
  C   C60       1.0  0.36749112615111745  0.9101930926199379  0.28633446688449793  1.0000
  C   C61       1.0  0.572793049541005  0.649814854507048  0.7661349655755934  1.0000
  C   C62       1.0  0.42720695108249646  0.1498148545422757  0.7338650344049664  1.0000
  C   C63       1.0  0.4272069509163414  0.3501851454224967  0.23386503451150678  1.0000
  C   C64       1.0  0.5727930492527512  0.8501851453872691  0.2661349652701368  1.0000
  C   C65       1.0  0.9569779946468856  0.7601780631677267  0.720146203678176  1.0000
  C   C66       1.0  0.04302200597661593  0.26017806320295433  0.7798537963023839  1.0000
  C   C67       1.0  0.043022005810460846  0.239821936761818  0.27985379640892416  1.0000
  C   C68       1.0  0.9569779943586317  0.7398219367265904  0.2201462033727194  1.0000
  C   C69       1.0  0.15246307697287415  0.8149402415029156  0.6927314795303391  1.0000
  C   C70       1.0  0.8475369236506273  0.3149402415381432  0.8072685204502208  1.0000
  C   C71       1.0  0.8475369234844723  0.1850597584266292  0.307268520556761  1.0000
  C   C72       1.0  0.1524630768067191  0.6850597583914015  0.1927314796368793  1.0000
  N   N1        1.0  0.6827509332951166  0.6315995798327426  0.7154708906898007  1.0000
  N   N2        1.0  0.3172490650935192  0.1315995798679703  0.7845291092891623  1.0000
  N   N3        1.0  0.3172490649273641  0.3684004200968021  0.2845291093957026  1.0000
  N   N4        1.0  0.6827509353638272  0.8684004200615745  0.21547089079793777  1.0000
  N   N5        1.0  0.8666107620279843  0.6841136920818699  0.6940217395991991  1.0000
  N   N6        1.0  0.13338923859551735  0.18411369211709755  0.8059782603813609  1.0000
  N   N7        1.0  0.13338923830726362  0.31588630784767485  0.3059782600759043  1.0000
  N   N8        1.0  0.8666107618618291  0.8158863078124472  0.19402173970573924  1.0000
  F   F1        1.0  0.8914672942318425  0.9056928519821038  0.4423643824728503  1.0000
  F   F2        1.0  0.1085327059372502  0.4056928520173315  0.05763561730879329  1.0000
  F   F3        1.0  0.10853270610340529  0.09430714794744087  0.5576356172022531  1.0000
  F   F4        1.0  0.8914672922852305  0.5943071479122133  0.94236438277671  1.0000
  F   F5        1.0  0.7141090610565287  0.060721943163628285  0.40433061209336363  1.0000
  F   F6        1.0  0.28589093911256397  0.5607219431284006  0.09566938768827994  1.0000
  F   F7        1.0  0.2858909370438534  0.9392780567659164  0.5956693875801428  1.0000
  F   F8        1.0  0.7141090613447824  0.43927805680114407  0.9043306123988201  1.0000
  F   F9        1.0  0.1665862454633433  0.6440269597389869  0.4725160292176892  1.0000
  F   F10       1.0  0.8334137547057494  0.1440269597742146  0.027483970563954383  1.0000
  F   F11       1.0  0.833413754994003  0.3559730401905578  0.5274839708694109  1.0000
  F   F12       1.0  0.1665862456294984  0.8559730401553302  0.972516029111149  1.0000
  F   F13       1.0  0.5278231370209682  0.4349117105882922  0.6047094463216919  1.0000
  F   F14       1.0  0.47217686360253336  0.9349117105530645  0.895290553658868  1.0000
  F   F15       1.0  0.47217686343637827  0.5650882893412525  0.39529055376540817  1.0000
  F   F16       1.0  0.5278231367327144  0.06508828937648016  0.10470944601623543  1.0000
  I   I1        1.0  0.7274738502327912  0.7936674650301371  0.5471631119854741  1.0000
  I   I2        1.0  0.27252615039071026  0.2936674650653647  0.9528368879950858  1.0000
  I   I3        1.0  0.2725261502245552  0.20633253489940764  0.45283688810162603  1.0000
  I   I4        1.0  0.7274738499445375  0.70633253486418  0.04716311168001758  1.0000
  I   I5        1.0  0.12238900271809718  0.6069968300833635  0.604978270454564  1.0000
  I   I6        1.0  0.8776109979054042  0.10699683011859114  0.8950217295259959  1.0000
  I   I7        1.0  0.8776109977392492  0.3930031698461812  0.3950217296325361  1.0000
  I   I8        1.0  0.12238900242984346  0.8930031698109535  0.1049782701491075  1.0000
