data_image0
_chemical_formula_structural       H40C62N4F8I4
_chemical_formula_sum              "H40 C62 N4 F8 I4"
_cell_length_a       11.549570320217699
_cell_length_b       11.600604944473234
_cell_length_c       11.729752161955338
_cell_angle_alpha    70.30422091489658
_cell_angle_beta     63.64455001898293
_cell_angle_gamma    73.7817339645675

_space_group_name_H-M_alt    "P 1"
_space_group_IT_number       1

loop_
  _space_group_symop_operation_xyz
  'x, y, z'

loop_
  _atom_site_type_symbol
  _atom_site_label
  _atom_site_symmetry_multiplicity
  _atom_site_fract_x
  _atom_site_fract_y
  _atom_site_fract_z
  _atom_site_occupancy
  H   H1        1.0  0.4171897795337404  0.2944502450926796  0.6353805919062502  1.0000
  H   H2        1.0  0.5828102212189349  0.7055497552076402  0.3646194077578491  1.0000
  H   H3        1.0  0.4416591589174039  0.2978543699073026  0.7641402486081446  1.0000
  H   H4        1.0  0.5583408420865548  0.7021456294948775  0.23585975105762752  1.0000
  H   H5        1.0  0.5929539551599408  0.4074478686927044  0.5361641935703632  1.0000
  H   H6        1.0  0.4070460452152125  0.592552131379718  0.463835807075738  1.0000
  H   H7        1.0  0.7494949783271205  0.3998254859072118  0.43073732591887787  1.0000
  H   H8        1.0  0.2505050218104628  0.6001745134945432  0.5692626737483633  1.0000
  H   H9        1.0  0.24828671494844304  0.7942140155389095  0.6078809026682301  1.0000
  H   H10       1.0  0.7517132854267102  0.205785984533513  0.39211909797787103  1.0000
  H   H11       1.0  0.10677262885521557  0.6804462277766505  0.8270557866668965  1.0000
  H   H12       1.0  0.8932273706535625  0.3195537722953469  0.17294421398067367  1.0000
  H   H13       1.0  0.6661895675806149  0.9086620926669079  0.893210690752795  1.0000
  H   H14       1.0  0.33381043317206055  0.09133790763341189  0.10678930891130428  1.0000
  H   H15       1.0  0.5545044035554153  0.1244093743967704  0.8765719612593346  1.0000
  H   H16       1.0  0.44549559595336297  0.875590625675227  0.12342803938823554  1.0000
  H   H17       1.0  0.8998516741405908  0.5038313981902798  0.43040758744638574  1.0000
  H   H18       1.0  0.10014832574570942  0.4961686021096151  0.5695924122191824  1.0000
  H   H19       1.0  0.9355631515813428  0.6386230178879737  0.5316729300978076  1.0000
  H   H20       1.0  0.06443684792743541  0.36137698218402375  0.4683270705497625  1.0000
  H   H21       1.0  0.5361366610208923  0.1309738692470914  0.5154843734098062  1.0000
  H   H22       1.0  0.46386333911669114  0.8690261301546637  0.4845156262574349  1.0000
  H   H23       1.0  0.6518200373365701  0.9173399961507441  0.5295221302734434  1.0000
  H   H24       1.0  0.348179962172208  0.08266000392125315  0.47047787037412675  1.0000
  H   H25       1.0  0.9372255943858167  0.8888596112080058  0.4698885721830017  1.0000
  H   H26       1.0  0.06277440550048329  0.11114038909188903  0.5301114274825667  1.0000
  H   H27       1.0  0.1663446376074616  0.893794518236052  0.4302318068954581  1.0000
  H   H28       1.0  0.8336553621525996  0.10620548093780559  0.569768193753785  1.0000
  H   H29       1.0  0.9179677698392196  0.5814053903057781  0.037666372105021655  1.0000
  H   H30       1.0  0.08203223004708075  0.41859460999411685  0.9623336275605465  1.0000
  H   H31       1.0  0.7126636570722523  0.5035798510044371  0.207107814734192  1.0000
  H   H32       1.0  0.28733634306533107  0.49642014839731785  0.7928921849330491  1.0000
  H   H33       1.0  0.5179508974804932  0.5413477849185351  0.15295262186220937  1.0000
  H   H34       1.0  0.48204910265709033  0.45865221448322  0.8470473778050317  1.0000
  H   H35       1.0  0.5235420474421818  0.6607611478072793  0.9324435337399961  1.0000
  H   H36       1.0  0.47645795231787935  0.33923885136657833  0.06755646690924681  1.0000
  H   H37       1.0  0.5195378141897823  0.7309858185737427  0.7286228008096955  1.0000
  H   H38       1.0  0.48046218569651805  0.2690141817261521  0.27137719885587275  1.0000
  H   H39       1.0  0.483272750124834  0.594774555417085  0.6304708343472987  1.0000
  H   H40       1.0  0.5167272506278414  0.4052254448832346  0.3695291653168007  1.0000
  C   C1        1.0  0.8079826246848686  0.9683513095694464  0.12888728645405292  1.0000
  C   C2        1.0  0.19201737482390943  0.031648690502551036  0.8711127141935172  1.0000
  C   C3        1.0  0.8633697667233877  0.9582772754711059  0.999375475601213  1.0000
  C   C4        1.0  0.13663023316291276  0.04172272482878883  0.0006245240643552018  1.0000
  C   C5        1.0  0.8562970972383377  0.060420418588972714  0.8961756388705269  1.0000
  C   C6        1.0  0.14370290289924575  0.9395795808127824  0.10382436079671428  1.0000
  C   C7        1.0  0.7967820920775803  0.1776330721133402  0.9189172159230022  1.0000
  C   C8        1.0  0.2032179086750951  0.8223669281869794  0.08108278374109695  1.0000
  C   C9        1.0  0.7469961832282817  0.0849156185806066  0.15188349856136854  1.0000
  C   C10       1.0  0.25300381665801847  0.9150843817192882  0.8481165011041998  1.0000
  C   C11       1.0  0.7433508388015537  0.18773158419102015  0.04837766150747111  1.0000
  C   C12       1.0  0.2566491610847466  0.8122684161088747  0.9516223381580972  1.0000
  C   C13       1.0  0.14917048884411557  0.7875252963606423  0.626063334342271  1.0000
  C   C14       1.0  0.8508295119085598  0.21247470393967754  0.3739366653218283  1.0000
  C   C15       1.0  0.06974541924567161  0.7240900674265546  0.7491630294866959  1.0000
  C   C16       1.0  0.9302545806406285  0.27590993287334026  0.2508369701788725  1.0000
  C   C17       1.0  0.9416662166515504  0.7199743903222938  0.7707070623161852  1.0000
  C   C18       1.0  0.05833378323475  0.2800256099776009  0.22929293734938297  1.0000
  C   C19       1.0  0.8943208141413092  0.779261034013491  0.6698009014192308  1.0000
  C   C20       1.0  0.10567918536746898  0.22073896605850638  0.3301990992283393  1.0000
  C   C21       1.0  0.750812079733674  0.7657795724109687  0.7171987415487436  1.0000
  C   C22       1.0  0.24918792101900167  0.2342204278893511  0.2828012581153556  1.0000
  C   C23       1.0  0.6681950150249403  0.8954363395162444  0.7126201604922532  1.0000
  C   C24       1.0  0.33180498448383783  0.10456366055575302  0.287379840155317  1.0000
  C   C25       1.0  0.638659837285589  0.9567990548583899  0.8092567888624859  1.0000
  C   C26       1.0  0.36134016260071133  0.04320094544150482  0.19074321080308254  1.0000
  C   C27       1.0  0.5756800966704231  0.0788926901836488  0.8002518220664018  1.0000
  C   C28       1.0  0.4243199030896383  0.9211073089902089  0.19974817858284113  1.0000
  C   C29       1.0  0.5387760780066242  0.14446219368631935  0.6935423841665346  1.0000
  C   C30       1.0  0.46122392150215386  0.8555378063856781  0.30645761648103553  1.0000
  C   C31       1.0  0.6886660258806377  0.5354917483333106  0.5261960273485707  1.0000
  C   C32       1.0  0.3113339738794236  0.4645082508405471  0.4738039733006721  1.0000
  C   C33       1.0  0.8159518721679552  0.5526343257737464  0.4972635850837595  1.0000
  C   C34       1.0  0.18404812734082282  0.4473656742982512  0.5027364155638107  1.0000
  C   C35       1.0  0.8356205621515408  0.6294666539142937  0.5551582202487888  1.0000
  C   C36       1.0  0.1643794377347593  0.37053334638560115  0.4448417794167795  1.0000
  C   C37       1.0  0.7306471125023263  0.6930411005133792  0.641978164621564  1.0000
  C   C38       1.0  0.26935288825034914  0.30695889978694035  0.3580218350425354  1.0000
  C   C39       1.0  0.56532406116472  0.08269401796293507  0.5982930583240462  1.0000
  C   C40       1.0  0.43467593958795553  0.9173059823373847  0.401706941340053  1.0000
  C   C41       1.0  0.6300431440100911  0.9610298474770098  0.607290034405737  1.0000
  C   C42       1.0  0.36995685549868706  0.03897015259498776  0.3927099662418331  1.0000
  C   C43       1.0  0.7245961253923634  0.6880303754353606  0.8589504443669432  1.0000
  C   C44       1.0  0.2754038753603121  0.31196962486495916  0.14104955529715607  1.0000
  C   C45       1.0  0.8366001094413213  0.66372629263406  0.8879124603755296  1.0000
  C   C46       1.0  0.16339989131135385  0.3362737076662596  0.1120875392885698  1.0000
  C   C47       1.0  0.9738904209745248  0.8421182259675196  0.5475881992835854  1.0000
  C   C48       1.0  0.02610957977815066  0.15788177433279993  0.45241180038051393  1.0000
  C   C49       1.0  0.10241649649288617  0.845361610853858  0.5255999418776247  1.0000
  C   C50       1.0  0.8975835033934141  0.1546383894460368  0.4744000577879436  1.0000
  C   C51       1.0  0.8330274865523003  0.5975718657014714  0.013356470274961792  1.0000
  C   C52       1.0  0.16697251295647783  0.40242813437052594  0.9866435303726084  1.0000
  C   C53       1.0  0.7175228566158997  0.5542014626019327  0.10839151914454018  1.0000
  C   C54       1.0  0.28247714327040074  0.4457985376979621  0.891608480521028  1.0000
  C   C55       1.0  0.60716483936683  0.5767476453470005  0.0786026659958184  1.0000
  C   C56       1.0  0.39283516051947026  0.42325235495289426  0.92139733366975  1.0000
  C   C57       1.0  0.6101802337627716  0.6442727283032145  0.9537287264247516  1.0000
  C   C58       1.0  0.3898197657460063  0.3557272717687831  0.0462712742228184  1.0000
  C   C59       1.0  0.6041043313985931  0.6802014515853589  0.6650643293507987  1.0000
  C   C60       1.0  0.3958956684877071  0.3197985487145359  0.3349356703147697  1.0000
  C   C61       1.0  0.5828374014594087  0.6038020066530781  0.6091300879765996  1.0000
  C   C62       1.0  0.4171625984268916  0.39619799364681657  0.39086991168896873  1.0000
  N   N1        1.0  0.4822197617875499  0.2692349681942172  0.6794802396109372  1.0000
  N   N2        1.0  0.5177802380987502  0.7307650321056777  0.32051976005463106  1.0000
  N   N3        1.0  0.6676510660880373  0.4576921494440703  0.47236001029660885  1.0000
  N   N4        1.0  0.3323489334207407  0.5423078506279272  0.5276399903509613  1.0000
  F   F1        1.0  0.691875889702333  0.10069675215867606  0.2752981965907053  1.0000
  F   F2        1.0  0.30812411105034254  0.8993032481416435  0.724701803073394  1.0000
  F   F3        1.0  0.6874759752215395  0.29960858647569766  0.07600540061505069  1.0000
  F   F4        1.0  0.31252402466476054  0.7003914138241972  0.9239945990505176  1.0000
  F   F5        1.0  0.9102375889690942  0.04393646601175078  0.7734046637013771  1.0000
  F   F6        1.0  0.08976241140605895  0.9560635340606718  0.22659533694472397  1.0000
  F   F7        1.0  0.9273050079042823  0.8480863299468184  0.9717495585686399  1.0000
  F   F8        1.0  0.07269499160449586  0.15191367012517903  0.02825044207893027  1.0000
  I   I1        1.0  0.8217398304019604  0.8143203981916809  0.2811891066641559  1.0000
  I   I2        1.0  0.17826016935810082  0.18567960098217695  0.718810893985087  1.0000
  I   I3        1.0  0.7931904542657299  0.3329001502880062  0.7643580630302016  1.0000
  I   I4        1.0  0.2068095461094233  0.6670998497844162  0.23564193761589952  1.0000
