data_image0
_chemical_formula_structural       H66C24N12O14I2
_chemical_formula_sum              "H66 C24 N12 O14 I2"
_cell_length_a       9.408422655954924
_cell_length_b       9.925642701141417
_cell_length_c       10.953520540749881
_cell_angle_alpha    88.81279799591438
_cell_angle_beta     76.11278407764621
_cell_angle_gamma    73.62703744536606

_space_group_name_H-M_alt    "P 1"
_space_group_IT_number       1

loop_
  _space_group_symop_operation_xyz
  'x, y, z'

loop_
  _atom_site_type_symbol
  _atom_site_label
  _atom_site_symmetry_multiplicity
  _atom_site_fract_x
  _atom_site_fract_y
  _atom_site_fract_z
  _atom_site_occupancy
  H   H1        1.0  0.6512167829979967  0.3889839439106094  0.47778251297192054  1.0000
  H   H2        1.0  0.3487832163528536  0.6110160564552428  0.5222174874264365  1.0000
  H   H3        1.0  0.4434606623106025  0.35415792320576256  0.48744833620007705  1.0000
  H   H4        1.0  0.5565393373502565  0.6458420761099214  0.5125516641965273  1.0000
  H   H5        1.0  0.2961664949520712  0.4229020782917305  0.3385660160566631  1.0000
  H   H6        1.0  0.703833504398779  0.5770979220741218  0.6614339843416941  1.0000
  H   H7        1.0  0.27593247670141413  0.6562564409545881  0.3379816374581417  1.0000
  H   H8        1.0  0.7240675239905383  0.34374355935742684  0.6620183619975193  1.0000
  H   H9        1.0  0.4549880227255178  0.6375306873070841  0.3337979249798991  1.0000
  H   H10       1.0  0.5450119766253325  0.3624693130587681  0.6662020754184581  1.0000
  H   H11       1.0  0.5396848725396649  0.5878095302514305  0.08624684485592266  1.0000
  H   H12       1.0  0.46031512681118536  0.4121904701144217  0.9137531555424345  1.0000
  H   H13       1.0  0.364524621449891  0.49910738231899165  0.1363262786677544  1.0000
  H   H14       1.0  0.6354753779009594  0.5008926180468605  0.8636737217306026  1.0000
  H   H15       1.0  0.6691156368095635  0.289703140361718  0.9711013413257805  1.0000
  H   H16       1.0  0.33088436419239753  0.7102968589001286  0.028898658128127638  1.0000
  H   H17       1.0  0.5759840786197827  0.17955554913484098  0.9508262827967673  1.0000
  H   H18       1.0  0.4240159217950738  0.8204444512282013  0.04917371760052535  1.0000
  H   H19       1.0  0.392056183373356  0.25965230775309744  0.14342200324666501  1.0000
  H   H20       1.0  0.6079438159774944  0.7403476926127548  0.856577997151692  1.0000
  H   H21       1.0  0.8256796922777091  0.08212125280233915  0.13659343253031664  1.0000
  H   H22       1.0  0.17432030738314983  0.9178787465133449  0.8634065678662879  1.0000
  H   H23       1.0  0.5998933858775768  0.07295702700856485  0.16268435832259254  1.0000
  H   H24       1.0  0.4001066137503696  0.92704297330626  0.8373156411341329  1.0000
  H   H25       1.0  0.6324169279025758  0.998781723780895  0.38256600986056355  1.0000
  H   H26       1.0  0.36758307172537047  0.0012182765339300147  0.6174339895961619  1.0000
  H   H27       1.0  0.7370883274594149  0.10947341325767716  0.3830166133710793  1.0000
  H   H28       1.0  0.2629116724785399  0.8905265860069793  0.6169833860838935  1.0000
  H   H29       1.0  0.42537889029641585  0.17506052593879262  0.35290686889670236  1.0000
  H   H30       1.0  0.5746211096415391  0.8249394733258639  0.6470931305582704  1.0000
  H   H31       1.0  0.16944087802853355  0.47787924536359516  0.572618921891742  1.0000
  H   H32       1.0  0.8305591219094213  0.5221207539010616  0.4273810775632308  1.0000
  H   H33       1.0  0.9393909453032394  0.5908041858089328  0.6079511923909863  1.0000
  H   H34       1.0  0.0606090540476109  0.4091958145569194  0.3920488080073709  1.0000
  H   H35       1.0  0.2422949203525241  0.23053530475801184  0.5674735040540875  1.0000
  H   H36       1.0  0.7577050803723411  0.7694646945548622  0.4325264963414524  1.0000
  H   H37       1.0  0.0924180428901419  0.19433178803843426  0.43978038106185374  1.0000
  H   H38       1.0  0.9075819578018105  0.8056682122735807  0.5602196183938073  1.0000
  H   H39       1.0  0.9341078085684995  0.3009302992257702  0.5281010393376566  1.0000
  H   H40       1.0  0.0658921913694554  0.6990697000388865  0.47189896011731625  1.0000
  H   H41       1.0  0.090151940121482  0.08155400286227334  0.6689541386776958  1.0000
  H   H42       1.0  0.9098480602933745  0.9184459975007692  0.3310458617195968  1.0000
  H   H43       1.0  0.856379396365243  0.15524248302028923  0.7614900116492833  1.0000
  H   H44       1.0  0.14362060326270312  0.8447575172945356  0.23850998780744218  1.0000
  H   H45       1.0  0.25410859882724157  0.15681105214344976  0.781787276766057  1.0000
  H   H46       1.0  0.7458914018647111  0.8431889481685653  0.21821272268960387  1.0000
  H   H47       1.0  0.9669234952151041  0.12271720624999201  0.9415916067758835  1.0000
  H   H48       1.0  0.033076505476848574  0.8772827940620228  0.058408392679777474  1.0000
  H   H49       1.0  0.12274928361009434  0.10293673500754155  0.9902320717535841  1.0000
  H   H50       1.0  0.8772507160507645  0.8970632643081423  0.009767928643020228  1.0000
  H   H51       1.0  0.15011570129895577  0.34391869788480006  0.948236052370528  1.0000
  H   H52       1.0  0.8498842983289906  0.6560813024300247  0.0517639470861975  1.0000
  H   H53       1.0  0.878063408270885  0.38995007595891557  0.8659779951710929  1.0000
  H   H54       1.0  0.12193659135706131  0.6100499243559092  0.13402200428563268  1.0000
  H   H55       1.0  0.28459145031221766  0.38702653132617715  0.7426106817083338  1.0000
  H   H56       1.0  0.7154085501026387  0.6129734690368651  0.25738931868895887  1.0000
  H   H57       1.0  0.018512156247015348  0.6344195930253385  0.8014089201148241  1.0000
  H   H58       1.0  0.9814878441678412  0.3655804073377038  0.19859108028246844  1.0000
  H   H59       1.0  0.20747866960246708  0.6233379974003811  0.7530869577131856  1.0000
  H   H60       1.0  0.7925213297483833  0.37666200296547103  0.2469130426851716  1.0000
  H   H61       1.0  0.13091691677561018  0.5896951997388081  0.9037383580225086  1.0000
  H   H62       1.0  0.8690830828523362  0.41030480057601665  0.09626164143421695  1.0000
  H   H63       1.0  0.55877935358526  0.09842295615651672  0.7050454239969605  1.0000
  H   H64       1.0  0.4412206474167012  0.9015770431053299  0.29495457545694775  1.0000
  H   H65       1.0  0.5469200225224748  0.12990744072912377  0.5652833684330866  1.0000
  H   H66       1.0  0.45307997789238164  0.8700925596339185  0.434716631964206  1.0000
  C   C1        1.0  0.5069159545711716  0.3476176519425489  0.38778262663117635  1.0000
  C   C2        1.0  0.4930840453667832  0.6523823473221078  0.6122173728237964  1.0000
  C   C3        1.0  0.40396264487109634  0.4512059728526999  0.31838330248989843  1.0000
  C   C4        1.0  0.596037354479754  0.5487940275131521  0.6816166979084587  1.0000
  C   C5        1.0  0.4615717282848507  0.43961399158196934  0.17410807918445687  1.0000
  C   C6        1.0  0.5384282713760082  0.5603860077337147  0.8258919212121475  1.0000
  C   C7        1.0  0.5011149744882701  0.28654949028949617  0.1242371078835123  1.0000
  C   C8        1.0  0.4988850251396761  0.7134505100253287  0.8757628915732132  1.0000
  C   C9        1.0  0.6039743620276548  0.1777424487983722  0.19191345504610938  1.0000
  C   C10       1.0  0.39602563763320414  0.8222575505173119  0.808086545350495  1.0000
  C   C11       1.0  0.5367792336820418  0.19745871042537758  0.33570677461413156  1.0000
  C   C12       1.0  0.46322076566880865  0.8025412899404746  0.6642932257842256  1.0000
  C   C13       1.0  0.09980416199326879  0.4312725333397026  0.6479535740856591  1.0000
  C   C14       1.0  0.9001958384215878  0.5687274670233398  0.3520464263116335  1.0000
  C   C15       1.0  0.11850177023039031  0.28067431469205434  0.6012470308304294  1.0000
  C   C16       1.0  0.8814982291204599  0.7193256856737978  0.39875296956792783  1.0000
  C   C17       1.0  0.058793050261621425  0.19091765732770008  0.7061817866158843  1.0000
  C   C18       1.0  0.9412069507403397  0.8090823419341467  0.29381821283802395  1.0000
  C   C19       1.0  0.12904513125227976  0.19363862717197763  0.8183654589289105  1.0000
  C   C20       1.0  0.8709548694725854  0.8063613721408963  0.18163454146662927  1.0000
  C   C21       1.0  0.0936091985724567  0.3450983401035501  0.8709295710469823  1.0000
  C   C22       1.0  0.9063908010554895  0.6549016602112747  0.12907042840974314  1.0000
  C   C23       1.0  0.15983166657441694  0.43107932959173617  0.7664910423605542  1.0000
  C   C24       1.0  0.8401683338404394  0.5689206707713061  0.23350895803673835  1.0000
  N   N1        1.0  0.3662960013745054  0.5957988993027566  0.37015754775508775  1.0000
  N   N2        1.0  0.633703998253441  0.40420110101206824  0.6298424517016378  1.0000
  N   N3        1.0  0.561339846944355  0.27836096703855173  0.9871116734301945  1.0000
  N   N4        1.0  0.4386601524064952  0.7216390333273004  0.012888326968162722  1.0000
  N   N5        1.0  0.6288775418744542  0.09887932688751165  0.4078491031593039  1.0000
  N   N6        1.0  0.3711224585404022  0.9011206734755307  0.5921508972379887  1.0000
  N   N7        1.0  0.04886766261350553  0.28654207475754895  0.4943359126883777  1.0000
  N   N8        1.0  0.9511323383884555  0.7134579245042977  0.5056640867655305  1.0000
  N   N9        1.0  0.083552221807695  0.09598133148702537  0.9112282399073721  1.0000
  N   N10       1.0  0.9164477775431552  0.9040186688788268  0.08877176049098501  1.0000
  N   N11       1.0  0.12644164994448454  0.5801267834021053  0.810267316486539  1.0000
  N   N12       1.0  0.8735583496834618  0.4198732169127196  0.18973268297018656  1.0000
  O   O1        1.0  0.6460964561183248  0.380461973828202  0.38526091902043935  1.0000
  O   O2        1.0  0.35390354460654033  0.619538025484672  0.6147390813751005  1.0000
  O   O3        1.0  0.5837161163306959  0.5007602665635938  0.13107208170419557  1.0000
  O   O4        1.0  0.41628388302015434  0.49923973380225845  0.8689279186941616  1.0000
  O   O5        1.0  0.7589670987155801  0.18220680215812216  0.15659423038084822  1.0000
  O   O6        1.0  0.24103290228638102  0.8177931971037246  0.8434057690730601  1.0000
  O   O7        1.0  0.9451239956772928  0.5151606843294373  0.6733431968642791  1.0000
  O   O8        1.0  0.054876003673557466  0.484839316036415  0.32665680353407806  1.0000
  O   O9        1.0  0.8938665346934178  0.24005546853192478  0.7444550671487214  1.0000
  O   O10       1.0  0.10613346465743258  0.7599445318339274  0.2555449332496357  1.0000
  O   O11       1.0  0.9337308230707002  0.4082990693744678  0.9260668068588588  1.0000
  O   O12       1.0  0.06626917628015004  0.5917009309913843  0.07393319353949841  1.0000
  O   O13       1.0  0.4865241258877253  0.15014047342387196  0.657034182371796  1.0000
  O   O14       1.0  0.513475873740221  0.8498595268909529  0.34296581708492957  1.0000
  I   I1        1.0  0.20951393798838774  0.060943525505598  0.2110463683325805  1.0000
  I   I2        1.0  0.7904860627035647  0.9390564748064171  0.7889536311230805  1.0000
