data_image0
_chemical_formula_structural       H16C16N2F4I2
_chemical_formula_sum              "H16 C16 N2 F4 I2"
_cell_length_a       6.032099928820364
_cell_length_b       6.2996817103735765
_cell_length_c       12.332692923208649
_cell_angle_alpha    102.63797255088586
_cell_angle_beta     94.56251083605584
_cell_angle_gamma    102.10406906405619

_space_group_name_H-M_alt    "P 1"
_space_group_IT_number       1

loop_
  _space_group_symop_operation_xyz
  'x, y, z'

loop_
  _atom_site_type_symbol
  _atom_site_label
  _atom_site_symmetry_multiplicity
  _atom_site_fract_x
  _atom_site_fract_y
  _atom_site_fract_z
  _atom_site_occupancy
  H   H1        1.0  0.6681151170145673  0.7075099556271688  0.5554819213613963  1.0000
  H   H2        1.0  0.3318848827670361  0.29249004466097533  0.4445180787435404  1.0000
  H   H3        1.0  0.5368770983453852  0.09134735295197194  0.31636907441888107  1.0000
  H   H4        1.0  0.4631229030968603  0.9086526473470098  0.6836309256891939  1.0000
  H   H5        1.0  0.9554133666413163  0.5383594213132156  0.3213265942123191  1.0000
  H   H6        1.0  0.04458663314028709  0.4616405789749284  0.6786734058926176  1.0000
  H   H7        1.0  0.02284909677270398  0.7313131397024081  0.4553071954215964  1.0000
  H   H8        1.0  0.9771509030088994  0.26868686058573593  0.5446928046833401  1.0000
  H   H9        1.0  0.7755083664585277  0.5019745021215622  0.42591779551440145  1.0000
  H   H10       1.0  0.2244916333230756  0.49802549816658187  0.5740822045905353  1.0000
  H   H11       1.0  0.9400665849451337  0.7685009377484529  0.21581070869024765  1.0000
  H   H12       1.0  0.05993341483646963  0.2314990625396912  0.7841892914146891  1.0000
  H   H13       1.0  0.7226790093266241  0.917929420053913  0.21203321108478118  1.0000
  H   H14       1.0  0.2773209901100566  0.08207057861278066  0.7879667890242573  1.0000
  H   H15       1.0  0.9759306472462534  0.03468537139917527  0.31131628353058605  1.0000
  H   H16       1.0  0.024069352190427322  0.9653146272675184  0.6886837165784526  1.0000
  C   C1        1.0  0.15110857413382298  0.16915540799087336  0.08469776651883673  1.0000
  C   C2        1.0  0.8488914269635  0.8308445906866578  0.9153022335933401  1.0000
  C   C3        1.0  0.9460341370679184  0.20330410686340789  0.03944791001160293  1.0000
  C   C4        1.0  0.053965862713684934  0.7966958934247362  0.9605520900933338  1.0000
  C   C5        1.0  0.20117187557256072  0.9620897267863698  0.044485657144818884  1.0000
  C   C6        1.0  0.7988281242090426  0.03791027350177406  0.9555143429601177  1.0000
  C   C7        1.0  0.6246238676345459  0.8812642785497123  0.4237119267567014  1.0000
  C   C8        1.0  0.37537613214705745  0.11873572173843171  0.5762880733482353  1.0000
  C   C9        1.0  0.5959938389131804  0.8352003256412904  0.5289318844410007  1.0000
  C   C10       1.0  0.40400616086842284  0.1647996746468535  0.4710681156639359  1.0000
  C   C11       1.0  0.5250957523588424  0.049184926580760034  0.3969844034782156  1.0000
  C   C12       1.0  0.47490424742276094  0.9508150737073839  0.603015596626721  1.0000
  C   C13       1.0  0.8815475688931631  0.6272696252750227  0.3906941332804398  1.0000
  C   C14       1.0  0.11845243088844012  0.37273037501312123  0.6093058668244969  1.0000
  C   C15       1.0  0.8509060761312757  0.8787822260541361  0.2675800479135601  1.0000
  C   C16       1.0  0.14909392365032775  0.1212177742340078  0.7324199521913766  1.0000
  N   N1        1.0  0.7414591474914697  0.7604300695766812  0.3464521019302254  1.0000
  N   N2        1.0  0.2585408522901336  0.23956993071146274  0.6535478981747113  1.0000
  F   F1        1.0  0.8860482552364723  0.39951136813452953  0.07716875541387908  1.0000
  F   F2        1.0  0.1139517443248133  0.6004886317415261  0.9228312438528125  1.0000
  F   F3        1.0  0.39647735023847974  0.9179503827685247  0.08684821897546152  1.0000
  F   F4        1.0  0.6035226495431235  0.08204961751961941  0.9131517811294751  1.0000
  I   I1        1.0  0.3880764562465096  0.4289552889978712  0.20224859752198585  1.0000
  I   I2        1.0  0.6119235435350937  0.5710447112902729  0.7977514025829509  1.0000
