data_image0
_chemical_formula_structural       H40C44N4O8
_chemical_formula_sum              "H40 C44 N4 O8"
_cell_length_a       8.444654030621203
_cell_length_b       10.691972933690133
_cell_length_c       10.846338735455538
_cell_angle_alpha    82.40342253029743
_cell_angle_beta     70.36281076125542
_cell_angle_gamma    79.25896578177385

_space_group_name_H-M_alt    "P 1"
_space_group_IT_number       1

loop_
  _space_group_symop_operation_xyz
  'x, y, z'

loop_
  _atom_site_type_symbol
  _atom_site_label
  _atom_site_symmetry_multiplicity
  _atom_site_fract_x
  _atom_site_fract_y
  _atom_site_fract_z
  _atom_site_occupancy
  H   H1        1.0  0.5605075536157731  0.9854087400763543  0.7208242708590368  1.0000
  H   H2        1.0  0.43949244679307475  0.01459126005683357  0.2791757289677384  1.0000
  H   H3        1.0  0.3681115719433971  0.5509210975078646  0.36776238036661796  1.0000
  H   H4        1.0  0.6318884272100381  0.44907890261632194  0.6322376197942328  1.0000
  H   H5        1.0  0.36736624459644507  0.9057595668830817  0.06556210955226507  1.0000
  H   H6        1.0  0.6326337558124028  0.09424043325010602  0.9344378902745101  1.0000
  H   H7        1.0  0.08602099372053316  0.9263559609733  0.07710029998092685  1.0000
  H   H8        1.0  0.9139790054329021  0.07364403915088659  0.9228997001799238  1.0000
  H   H9        1.0  0.8495290661085116  0.8508135283590069  0.035542976436358065  1.0000
  H   H10       1.0  0.1504709330449236  0.14918647176517963  0.9644570237244926  1.0000
  H   H11       1.0  0.9039508394284317  0.6520191192135217  0.9221890260454433  1.0000
  H   H12       1.0  0.09604915972500357  0.3479808809106648  0.07781097411540738  1.0000
  H   H13       1.0  0.19946586727493312  0.5297713829428525  0.8495044775022206  1.0000
  H   H14       1.0  0.8005341331339149  0.4702286171903352  0.1504955223245546  1.0000
  H   H15       1.0  0.43446299943621003  0.6075381443793894  0.8876181381507864  1.0000
  H   H16       1.0  0.5655370009726379  0.3924618557537983  0.11238186167598878  1.0000
  H   H17       1.0  0.5733873764192201  0.635787228288881  0.031385919528127214  1.0000
  H   H18       1.0  0.42661262273421513  0.3642127718353054  0.9686140806327235  1.0000
  H   H19       1.0  0.6194177219520165  0.7597377950460416  0.09873967315999198  1.0000
  H   H20       1.0  0.38058227720141863  0.24026220507814489  0.9012603270008587  1.0000
  H   H21       1.0  0.10509973694756657  0.6924364169582724  0.4962531349004382  1.0000
  H   H22       1.0  0.8949002636666021  0.30756358222037594  0.5037468650088641  1.0000
  H   H23       1.0  0.8663797426983475  0.6440503331391876  0.7038621290133972  1.0000
  H   H24       1.0  0.13362025771050043  0.3559496669940001  0.2961378708133779  1.0000
  H   H25       1.0  0.8915913396851427  0.4243068809115093  0.818789330277715  1.0000
  H   H26       1.0  0.10840866072370524  0.5756931192216784  0.18121066954906  1.0000
  H   H27       1.0  0.14896191964124822  0.2674570067256346  0.7289226682178129  1.0000
  H   H28       1.0  0.8510380807675998  0.7325429934075531  0.2710773316089623  1.0000
  H   H29       1.0  0.5004000268627291  0.35011371210702286  0.41157168511709435  1.0000
  H   H30       1.0  0.49959997229070613  0.6498862880171636  0.5884283150437563  1.0000
  H   H31       1.0  0.39743299284318473  0.16467001549379398  0.658469338704183  1.0000
  H   H32       1.0  0.6025670065155714  0.835329983675853  0.34153066153919476  1.0000
  H   H33       1.0  0.7098806882448785  0.21802275662489376  0.31156487038791514  1.0000
  H   H34       1.0  0.2901193121639696  0.7819772435082938  0.6884351294388601  1.0000
  H   H35       1.0  0.968812952208057  0.062112646554836136  0.22674263087227237  1.0000
  H   H36       1.0  0.03118704820079101  0.9378873535783516  0.7732573689545029  1.0000
  H   H37       1.0  0.029013663655782052  0.8664810588465931  0.369995125290031  1.0000
  H   H38       1.0  0.9709863354976533  0.1335189412775935  0.6300048748708198  1.0000
  H   H39       1.0  0.8218962902114256  0.8425279961386704  0.6012069570484972  1.0000
  H   H40       1.0  0.1781037101974224  0.1574720039945173  0.3987930427782778  1.0000
  C   C1        1.0  0.5405366443336493  0.8599592404829354  0.8754354479884161  1.0000
  C   C2        1.0  0.459463354819786  0.140040759641251  0.12456455217243469  1.0000
  C   C3        1.0  0.4204238124048701  0.8206959594138146  0.009830882228271182  1.0000
  C   C4        1.0  0.579576188003978  0.17930404071937306  0.990169117598504  1.0000
  C   C5        1.0  0.27541496675886595  0.7717241945193489  0.9874249460958439  1.0000
  C   C6        1.0  0.7245850323945693  0.2282758056048375  0.012575054065006865  1.0000
  C   C7        1.0  0.11018838371865763  0.8391058600836369  0.027649700351336834  1.0000
  C   C8        1.0  0.8898116166901904  0.16089414004955097  0.9723502994754383  1.0000
  C   C9        1.0  0.9772818576497015  0.7961212655291361  0.004403854272212079  1.0000
  C   C10       1.0  0.022718141503733566  0.20387873459505046  0.9955961458886385  1.0000
  C   C11       1.0  0.008023494578844171  0.6842646019877955  0.941021336214915  1.0000
  C   C12       1.0  0.991976505830004  0.3157353981453922  0.058978663611860035  1.0000
  C   C13       1.0  0.17287247339711553  0.6162870418182815  0.9005103031614301  1.0000
  C   C14       1.0  0.8271275270117325  0.38371295831490626  0.09948969666534505  1.0000
  C   C15       1.0  0.3057856866586519  0.6598610060007115  0.9232517372981509  1.0000
  C   C16       1.0  0.694214313750196  0.3401389941324763  0.07674826252862417  1.0000
  C   C17       1.0  0.5142784118025955  0.7209501110063924  0.08591608868987352  1.0000
  C   C18       1.0  0.4857215886062525  0.27904988912679524  0.9140839111369016  1.0000
  C   C19       1.0  0.39947711703520705  0.684613977105491  0.2215642803085862  1.0000
  C   C20       1.0  0.6005228833736408  0.31538602302769675  0.778435719518189  1.0000
  C   C21       1.0  0.108422892010089  0.6004159219412362  0.5531573686563922  1.0000
  C   C22       1.0  0.8915771071433463  0.39958407818295033  0.4468426315044585  1.0000
  C   C23       1.0  0.9770791088245457  0.5725021339857187  0.6662968136718518  1.0000
  C   C24       1.0  0.022920891584302067  0.42749786614746904  0.3337031861549233  1.0000
  C   C25       1.0  0.9917698162918093  0.45068955974006736  0.7303362811664514  1.0000
  C   C26       1.0  0.008230184117038564  0.5493104403931204  0.2696637186603236  1.0000
  C   C27       1.0  0.13644126033251647  0.36288800132575144  0.6805641609195935  1.0000
  C   C28       1.0  0.8635587388209188  0.637111998798435  0.31943583924125707  1.0000
  C   C29       1.0  0.26515633875838507  0.3978532468683235  0.5666488991924521  1.0000
  C   C30       1.0  0.7348436616504629  0.6021467532648642  0.433351100634323  1.0000
  C   C31       1.0  0.42174028063625013  0.31347123794454435  0.5068596951733724  1.0000
  C   C32       1.0  0.5782597197725979  0.6865287621886433  0.4931403046534028  1.0000
  C   C33       1.0  0.4739578103452597  0.19932452177947974  0.5614389779199074  1.0000
  C   C34       1.0  0.5260421900635881  0.8006754783537081  0.43856102190686785  1.0000
  C   C35       1.0  0.6293697733490479  0.11369071541373356  0.5022916570962206  1.0000
  C   C36       1.0  0.37063022705980003  0.8863092847194542  0.4977083427305544  1.0000
  C   C37       1.0  0.7381463275045955  0.13407175394888168  0.3736277590688132  1.0000
  C   C38       1.0  0.26185367290425243  0.8659282461843061  0.6263722407579619  1.0000
  C   C39       1.0  0.8825506314863771  0.045415537001629765  0.32561127395128503  1.0000
  C   C40       1.0  0.11744936892247095  0.954584463131558  0.6743887258754901  1.0000
  C   C41       1.0  0.9161147892404086  0.9368953959727637  0.4051768679400341  1.0000
  C   C42       1.0  0.0838852113737601  0.06310460320588437  0.5948231319692683  1.0000
  C   C43       1.0  0.8031787495721334  0.9231087229274421  0.5319191725768294  1.0000
  C   C44       1.0  0.1968212508367145  0.07689127720574589  0.46808082724994565  1.0000
  N   N1        1.0  0.2477488779725992  0.5157255427510373  0.5043095564908702  1.0000
  N   N2        1.0  0.7522511213861568  0.4842744564186098  0.4956904437525076  1.0000
  N   N3        1.0  0.6646975633146883  0.008759667012522654  0.5792703965931479  1.0000
  N   N4        1.0  0.3353024370941598  0.9912403331206651  0.42072960323362707  1.0000
  O   O1        1.0  0.4806926213569778  0.9689517495399883  0.8214469014253489  1.0000
  O   O2        1.0  0.5193073790518701  0.031048250593199503  0.17855309840142627  1.0000
  O   O3        1.0  0.676658676146136  0.7926834752028314  0.8220787920442783  1.0000
  O   O4        1.0  0.32334132426271195  0.20731652493035627  0.17792120778249695  1.0000
  O   O5        1.0  0.2727328016540645  0.7572638580792097  0.2811554810273846  1.0000
  O   O6        1.0  0.7272671974993709  0.24273614204497684  0.7188445191334661  1.0000
  O   O7        1.0  0.4503932890491597  0.5694011483183343  0.27010089955610295  1.0000
  O   O8        1.0  0.5496067113596882  0.4305988518148534  0.7298991002706722  1.0000
