data_image0
_chemical_formula_structural       H90C81N3O14S3Br3
_chemical_formula_sum              "H90 C81 N3 O14 S3 Br3"
_cell_length_a       11.563995857890394
_cell_length_b       13.034483693417359
_cell_length_c       13.38958587517475
_cell_angle_alpha    113.41007207592158
_cell_angle_beta     91.2741469319223
_cell_angle_gamma    91.54112586599572

_space_group_name_H-M_alt    "P 1"
_space_group_IT_number       1

loop_
  _space_group_symop_operation_xyz
  'x, y, z'

loop_
  _atom_site_type_symbol
  _atom_site_label
  _atom_site_symmetry_multiplicity
  _atom_site_fract_x
  _atom_site_fract_y
  _atom_site_fract_z
  _atom_site_occupancy
  H   H1        1.0  0.6983885450940928  0.12100744323411876  0.45039853651464895  1.0000
  H   H2        1.0  0.5708614067723949  0.9510051312132857  0.36767013160804674  1.0000
  H   H3        1.0  0.41745427934781754  0.023417827428940666  0.6784651748248604  1.0000
  H   H4        1.0  0.550729485221489  0.1922901451309658  0.7641656075345384  1.0000
  H   H5        1.0  0.3565350003880122  0.8984429079202456  0.30549841132805433  1.0000
  H   H6        1.0  0.24131527951450718  0.8212506323285985  0.328909858236829  1.0000
  H   H7        1.0  0.2813025665490783  0.058436653724452434  0.49785042238848454  1.0000
  H   H8        1.0  0.414405609133049  0.10578814850929763  0.3705479208594563  1.0000
  H   H9        1.0  0.055824539772530705  0.128558315465165  0.1734091497511104  1.0000
  H   H10       1.0  0.9645510390719312  0.08875055285438947  0.36214019255359514  1.0000
  H   H11       1.0  0.9674252480276664  0.9804156942449648  0.23111531781683062  1.0000
  H   H12       1.0  0.9571263523675192  0.908425868254832  0.3789915114322206  1.0000
  H   H13       1.0  0.07752389319795068  0.8634674799893538  0.29722163673393354  1.0000
  H   H14       1.0  0.5989142763786457  0.28335391725477177  0.290845823479521  1.0000
  H   H15       1.0  0.6376463268559234  0.10422396645320238  0.22085919370799917  1.0000
  H   H16       1.0  0.5170643626484328  0.2578362832912274  0.3929634764235946  1.0000
  H   H17       1.0  0.17027002966363283  0.2892085124002329  0.03250077681383722  1.0000
  H   H18       1.0  0.07834960940674811  0.27957928150142364  0.13419460271270028  1.0000
  H   H19       1.0  0.11095472821391181  0.15553475017986051  0.017771336611554285  1.0000
  H   H20       1.0  0.07832465588570035  0.1544055402033248  0.5275912450091974  1.0000
  H   H21       1.0  0.8886992829850786  0.05089089393830619  0.5011197413306837  1.0000
  H   H22       1.0  0.921804193022745  0.12663918425078083  0.6415417895545024  1.0000
  H   H23       1.0  0.9396550428581159  0.9796574251092783  0.5819664673624946  1.0000
  H   H24       1.0  0.12179074489289882  0.9372860812759122  0.6442296135077048  1.0000
  H   H25       1.0  0.2346900454779303  0.9768974119520135  0.8152774241023243  1.0000
  H   H26       1.0  0.3326999715897323  0.16508080051659926  0.915234141274862  1.0000
  H   H27       1.0  0.31108919677944474  0.31346439555520555  0.8434998411876876  1.0000
  H   H28       1.0  0.19219662998806825  0.27404319726941784  0.6745903740336625  1.0000
  H   H29       1.0  0.39656269976329667  0.5561820790594182  0.48777694405860744  1.0000
  H   H30       1.0  0.2997063386103263  0.6296965923241533  0.3638717463670477  1.0000
  H   H31       1.0  0.01703375361089812  0.3865650335927141  0.3051704823608934  1.0000
  H   H32       1.0  0.11931039006410701  0.3067281210283101  0.4217864197551544  1.0000
  H   H33       1.0  0.06498455817416886  0.7434581768224764  0.4015026217600567  1.0000
  H   H34       1.0  0.951534478213336  0.7195376943543484  0.30088343302530873  1.0000
  H   H35       1.0  0.9395373608733025  0.5580330403839858  0.4072350200021667  1.0000
  H   H36       1.0  0.09539684003582183  0.6463703329110412  0.5504198017917734  1.0000
  H   H37       1.0  0.7985571850450568  0.9121117938715914  0.7494947334274779  1.0000
  H   H38       1.0  0.6634862450543331  0.7820062234850961  0.5606654678961133  1.0000
  H   H39       1.0  0.734448459240778  0.8977124612425802  0.5514102611745001  1.0000
  H   H40       1.0  0.6621542140053226  0.7374784185388921  0.37116621022792645  1.0000
  H   H41       1.0  0.8036486985318373  0.791513393090389  0.3742961373002104  1.0000
  H   H42       1.0  0.30473251234932247  0.7075475094680386  0.7681874450828351  1.0000
  H   H43       1.0  0.2675747223986437  0.7299826576781625  0.6477720737192002  1.0000
  H   H44       1.0  0.2102540808781996  0.6087043156626261  0.6657635183633657  1.0000
  H   H45       1.0  0.9241342469463394  0.9963991204251179  0.019505973732468315  1.0000
  H   H46       1.0  0.8125364495871968  0.9127025244303171  0.9260800188196118  1.0000
  H   H47       1.0  0.8739109243488562  0.03352190718875468  0.9110397117163346  1.0000
  H   H48       1.0  0.7291040375028891  0.5835518816536306  0.4979229743334977  1.0000
  H   H49       1.0  0.5551718628123133  0.6241296620465642  0.4069498285811844  1.0000
  H   H50       1.0  0.5541361454712816  0.481355908565065  0.3886075557310381  1.0000
  H   H51       1.0  0.593384973725453  0.5189467834780986  0.2802935486112772  1.0000
  H   H52       1.0  0.7679492076652631  0.42373179991668924  0.19524145391354852  1.0000
  H   H53       1.0  0.8291829875132984  0.2271600793929146  0.11858972739942293  1.0000
  H   H54       1.0  0.8691854360097571  0.1296396545725303  0.24100471650602986  1.0000
  H   H55       1.0  0.856269130146629  0.23296826564436404  0.4425877709342499  1.0000
  H   H56       1.0  0.7943568111987681  0.4280222919389445  0.5181509792566722  1.0000
  H   H57       1.0  0.06502871576939993  0.47285931477610116  0.8844394671849111  1.0000
  H   H58       1.0  0.9699909797008098  0.5892730408856679  0.05505811168688112  1.0000
  H   H59       1.0  0.7430898562785467  0.7147002614903527  0.8723183148436985  1.0000
  H   H60       1.0  0.8408634287691228  0.6006918291169914  0.7015579091463974  1.0000
  H   H61       1.0  0.7565699854538681  0.5981981501004098  0.15622202856049097  1.0000
  H   H62       1.0  0.6417541502898457  0.6931321365781864  0.19114841572354038  1.0000
  H   H63       1.0  0.649639659785839  0.562652278764374  0.9525103625332525  1.0000
  H   H64       1.0  0.7968585660634563  0.42365615766812637  0.9470355770190688  1.0000
  H   H65       1.0  0.48035473853736105  0.23042687830727449  0.056446973631248634  1.0000
  H   H66       1.0  0.40987486810401935  0.42958352883008055  0.1687808252234541  1.0000
  H   H67       1.0  0.35579439045935035  0.4039113166696171  0.0377472856745815  1.0000
  H   H68       1.0  0.3543487458143861  0.6053323214445824  0.13369256661327922  1.0000
  H   H69       1.0  0.4892057820807554  0.6126031366511142  0.19753605774355013  1.0000
  H   H70       1.0  0.9990021646139184  0.2016071279903272  0.8640352148315693  1.0000
  H   H71       1.0  0.963996402863253  0.33368794834744797  0.9693975797347657  1.0000
  H   H72       1.0  0.913174579965601  0.296612387505473  0.8310760279971829  1.0000
  H   H73       1.0  0.6137373539640562  0.9687069423211161  0.9963084062965333  1.0000
  H   H74       1.0  0.5036610419061536  0.025952518054449127  0.9383460484901979  1.0000
  H   H75       1.0  0.5441297155831336  0.0937996233371598  0.07925487421022581  1.0000
  H   H76       1.0  0.448604063904109  0.45508944802245205  0.8886121611070968  1.0000
  H   H77       1.0  0.26266796626073197  0.5189537680870632  0.974802295836298  1.0000
  H   H78       1.0  0.27007900899393783  0.5407178853399874  0.8520335083337289  1.0000
  H   H79       1.0  0.29202508055439513  0.655444119112384  0.9808661342988686  1.0000
  H   H80       1.0  0.46827802493549653  0.7680562641741404  0.9646641291136103  1.0000
  H   H81       1.0  0.5390330308419795  0.8468068426709034  0.8331899069041363  1.0000
  H   H82       1.0  0.608166871442966  0.7211036968673181  0.6538517477650745  1.0000
  H   H83       1.0  0.6064296787422222  0.5149295143519996  0.6032271297921624  1.0000
  H   H84       1.0  0.5311431367345476  0.4372233513506852  0.7319884198112354  1.0000
  H   H85       1.0  0.12058733785531704  0.7669294362370322  0.0981278859502755  1.0000
  H   H86       1.0  0.10953194984165328  0.7672040634134973  0.963356982552978  1.0000
  H   H87       1.0  0.06507226066181386  0.8831244875031673  0.07469996684667793  1.0000
  H   H88       1.0  0.3538163069097053  0.9900862433604172  0.030754825213509314  1.0000
  H   H89       1.0  0.202607361268759  0.9869738775847066  0.9931741557557547  1.0000
  H   H90       1.0  0.2895511881706548  0.877977509969421  0.9134445524491556  1.0000
  C   C1        1.0  0.6325397911279894  0.1650250965884046  0.6119238946175583  1.0000
  C   C2        1.0  0.6393825045242592  0.09829519281176005  0.5009809141405218  1.0000
  C   C3        1.0  0.5664884070410802  0.003352330432135901  0.4542842215188163  1.0000
  C   C4        1.0  0.48734440340219676  0.9777676108791991  0.5192664797480511  1.0000
  C   C5        1.0  0.4808898537388649  0.044705515556104636  0.6301155069408095  1.0000
  C   C6        1.0  0.5548365374271361  0.1393301344492914  0.6777476907800706  1.0000
  C   C7        1.0  0.29947184955921385  0.8953821904021433  0.3687349399348766  1.0000
  C   C8        1.0  0.23322778387480522  0.004257792984752987  0.4225023653613369  1.0000
  C   C9        1.0  0.2313807918455637  0.06636282969874417  0.3466610648324126  1.0000
  C   C10       1.0  0.3351967709384469  0.1139595650106706  0.329459496312641  1.0000
  C   C11       1.0  0.33960113663999514  0.16873019243663145  0.2592714436697877  1.0000
  C   C12       1.0  0.23768023286249812  0.17347904360604677  0.20091417135847736  1.0000
  C   C13       1.0  0.13505985483577376  0.12480561521647864  0.21705180625203999  1.0000
  C   C14       1.0  0.13035013108464286  0.07212419922495567  0.2904233789068059  1.0000
  C   C15       1.0  0.01804056965178788  0.021922806464948895  0.3079787707453564  1.0000
  C   C16       1.0  0.03918467110159328  0.9375261593976925  0.3582126556877915  1.0000
  C   C17       1.0  0.5390197956067029  0.22529538454965084  0.3065671691395177  1.0000
  C   C18       1.0  0.14524110245202226  0.23760734559538815  0.07656098303731716  1.0000
  C   C19       1.0  0.07443315337456974  0.07832458424457353  0.5458648578165853  1.0000
  C   C20       1.0  0.9485970196487522  0.05714599149737981  0.5682370379870968  1.0000
  C   C21       1.0  0.14879777582253415  0.10306875596083595  0.6482459681533194  1.0000
  C   C22       1.0  0.16149512337694574  0.020225844982147488  0.6890547321257736  1.0000
  C   C23       1.0  0.2264259585683594  0.042537020767221136  0.7849035533180655  1.0000
  C   C24       1.0  0.2808260420043252  0.14791042816642688  0.8408992462823995  1.0000
  C   C25       1.0  0.2684382783002183  0.23116971398533895  0.800890258465668  1.0000
  C   C26       1.0  0.20214753249308468  0.20876393109233055  0.7053731859648761  1.0000
  C   C27       1.0  0.26273537451879503  0.4280232853952137  0.4618005241978546  1.0000
  C   C28       1.0  0.31458908541184855  0.5184015150398524  0.4464416481956743  1.0000
  C   C29       1.0  0.2592097541880614  0.5605301051357372  0.3780246900921359  1.0000
  C   C30       1.0  0.1521665728915821  0.5129250792167629  0.32839187418551813  1.0000
  C   C31       1.0  0.10035608875490948  0.4229430478318138  0.34471169609679103  1.0000
  C   C32       1.0  0.156782219051383  0.37906335192312535  0.4111333260438073  1.0000
  C   C33       1.0  0.9984831107613453  0.6824962689438674  0.3499042143018959  1.0000
  C   C34       1.0  0.9158692551076582  0.6425608488516189  0.417054557453431  1.0000
  C   C35       1.0  0.9310796915355084  0.715923542635538  0.5380256247164957  1.0000
  C   C36       1.0  0.030706438423866746  0.7051170336045708  0.5946270297173282  1.0000
  C   C37       1.0  0.047637005881839334  0.7671797268600657  0.7057683673156561  1.0000
  C   C38       1.0  0.9611940581137517  0.8413714167375648  0.7632463826372528  1.0000
  C   C39       1.0  0.8635786294816166  0.8530307405837768  0.7062856867044082  1.0000
  C   C40       1.0  0.8478866990250336  0.791611584762322  0.5930090858902896  1.0000
  C   C41       1.0  0.7433406711593713  0.8080356724571706  0.5322913795011545  1.0000
  C   C42       1.0  0.7487316269816846  0.7442733970853823  0.4086176459380525  1.0000
  C   C43       1.0  0.2361345823900038  0.697823340457456  0.7071692494566549  1.0000
  C   C44       1.0  0.8923310779567071  0.9637752913733509  0.9344579122193316  1.0000
  C   C45       1.0  0.7264085745463531  0.554777939091243  0.40785105462888976  1.0000
  C   C46       1.0  0.5998158228343903  0.5455689890952824  0.3690965202744585  1.0000
  C   C47       1.0  0.7746624412511004  0.4386421970499344  0.3617947527226148  1.0000
  C   C48       1.0  0.7860408497116843  0.38152307651649386  0.24924461759139296  1.0000
  C   C49       1.0  0.820825596851312  0.271084860561354  0.2061305586988284  1.0000
  C   C50       1.0  0.8444433146083232  0.2164747437382016  0.27501653056431674  1.0000
  C   C51       1.0  0.8360550680238211  0.27360414724514287  0.38743632545671086  1.0000
  C   C52       1.0  0.8011461037238544  0.3839665865354891  0.4302550008812229  1.0000
  C   C53       1.0  0.9570453576419657  0.5298460679926605  0.7842164979150632  1.0000
  C   C54       1.0  0.9947352063563973  0.5259503412109611  0.8825063897478731  1.0000
  C   C55       1.0  0.9414205978762983  0.5916033584532956  0.9779897811588497  1.0000
  C   C56       1.0  0.8513641114172245  0.6590023922710804  0.9728135504927926  1.0000
  C   C57       1.0  0.8141519396450336  0.6623670805437855  0.8743588531861839  1.0000
  C   C58       1.0  0.8680106975648922  0.5977306507594276  0.7787019754391219  1.0000
  C   C59       1.0  0.6943727524174167  0.6405986302115012  0.12392329773084118  1.0000
  C   C60       1.0  0.6175814274570659  0.5590834860478905  0.02793123276779388  1.0000
  C   C61       1.0  0.6280148960288788  0.43837067623293374  0.01610776810862814  1.0000
  C   C62       1.0  0.727715361054145  0.3805200930018532  0.970849463534263  1.0000
  C   C63       1.0  0.7392309308864944  0.2693008853017469  0.9549524219120697  1.0000
  C   C64       1.0  0.6480143486472664  0.21350139612018726  0.9850757498715691  1.0000
  C   C65       1.0  0.5495705074304552  0.27101050625249445  0.029827847923576113  1.0000
  C   C66       1.0  0.5384246929638484  0.38390197344231336  0.04650543565407763  1.0000
  C   C67       1.0  0.42992137957433113  0.4431422883612772  0.09483605522108798  1.0000
  C   C68       1.0  0.439628540812477  0.5686286852376612  0.12047832861159362  1.0000
  C   C69       1.0  0.9328243681834112  0.26430065403222724  0.8937331927928208  1.0000
  C   C70       1.0  0.5767553330119284  0.045842785450385545  0.9980172234463351  1.0000
  C   C71       1.0  0.4377786794769472  0.5469964588771734  0.9283738504342616  1.0000
  C   C72       1.0  0.3077531862374228  0.5667309228080986  0.9348513292854856  1.0000
  C   C73       1.0  0.49120114718684493  0.59710025451798  0.8545802844131017  1.0000
  C   C74       1.0  0.4960798712785865  0.7132664877229966  0.8842236421635298  1.0000
  C   C75       1.0  0.5372760618623238  0.7569617655945984  0.8114575853088175  1.0000
  C   C76       1.0  0.5761298756195925  0.6860599039164499  0.7098546103282795  1.0000
  C   C77       1.0  0.5748773752377726  0.571015789608789  0.6815428886549255  1.0000
  C   C78       1.0  0.5322776391594206  0.5272888252773568  0.7538492983907679  1.0000
  C   C79       1.0  0.1292196189682449  0.8177672755774418  0.05024914454660735  1.0000
  C   C80       1.0  0.24929401296355974  0.8697975339040307  0.0638773816117487  1.0000
  C   C81       1.0  0.275766414210151  0.937027259458705  0.997438736135964  1.0000
  N   N1        1.0  0.11794570324528827  0.9808046439026675  0.45445803874881013  1.0000
  N   N2        1.0  0.7958114460745094  0.6322733943813742  0.3749869443385743  1.0000
  N   N3        1.0  0.4975851222088122  0.5944533645900557  0.03630681286899227  1.0000
  O   O1        1.0  0.45863155496663294  0.7660710958454903  0.3876188018664145  1.0000
  O   O2        1.0  0.3262146929128619  0.8437344431892332  0.5429765491990232  1.0000
  O   O3        1.0  0.4373942720035245  0.2207866961671127  0.24144518140300802  1.0000
  O   O4        1.0  0.24869452049789276  0.2269526749738929  0.13181054807456252  1.0000
  O   O5        1.0  0.9950005576916019  0.4904498874736746  0.17541059074398635  1.0000
  O   O6        1.0  0.16006585126398507  0.6295300854962993  0.20634510864054154  1.0000
  O   O7        1.0  0.1422872981887154  0.761732123614436  0.7660303634592984  1.0000
  O   O8        1.0  0.9824868516341123  0.8966897368743019  0.8726365036864236  1.0000
  O   O9        1.0  0.8683535389447671  0.7871132255206198  0.1819896630767586  1.0000
  O   O10       1.0  0.7075580661992661  0.8174826529750598  0.06958183953187863  1.0000
  O   O11       1.0  0.833728360384784  0.20730834881757024  0.9128420250049814  1.0000
  O   O12       1.0  0.6676410052807927  0.10541489067872234  0.970817983841991  1.0000
  O   O13       1.0  0.3246745756449996  0.8547202034234584  0.12242130704220616  1.0000
  O   O14       1.0  0.5863811804219491  0.11995947649387143  0.28140354474516954  1.0000
  S   S1        1.0  0.391080089562599  0.8585631640171413  0.4578018919726922  1.0000
  S   S2        1.0  0.0763917504546211  0.574424346143197  0.2502603169546939  1.0000
  S   S3        1.0  0.7806529417833784  0.7410785098644943  0.09413544516655488  1.0000
  Br  Br1       1.0  0.7314172606799766  0.29581709473044104  0.6728372611356169  1.0000
  Br  Br2       1.0  0.33780676458278824  0.37079704242091144  0.5553658257313261  1.0000
  Br  Br3       1.0  0.028975995883226566  0.4395788334229135  0.6536945418212824  1.0000
