data_image0
_chemical_formula_structural       H52C12N8O12S8
_chemical_formula_sum              "H52 C12 N8 O12 S8"
_cell_length_a       15.066249267135028
_cell_length_b       6.092035701340919
_cell_length_c       10.046227173773312
_cell_angle_alpha    90.0
_cell_angle_beta     109.16348480219219
_cell_angle_gamma    90.0

_space_group_name_H-M_alt    "P 1"
_space_group_IT_number       1

loop_
  _space_group_symop_operation_xyz
  'x, y, z'

loop_
  _atom_site_type_symbol
  _atom_site_label
  _atom_site_symmetry_multiplicity
  _atom_site_fract_x
  _atom_site_fract_y
  _atom_site_fract_z
  _atom_site_occupancy
  H   H1        1.0  0.26124288285779573  0.918598884567967  0.20489932631950977  1.0000
  H   H2        1.0  0.7387571169063959  0.41859888467802203  0.2951006740460488  1.0000
  H   H3        1.0  0.7387571169241836  0.08140111521192296  0.7951006735582555  1.0000
  H   H4        1.0  0.2612428828755833  0.5814011167433554  0.7048993258317166  1.0000
  H   H5        1.0  0.22189097234890776  0.17486224018114732  0.22817599575862657  1.0000
  H   H6        1.0  0.7781090274152839  0.6748622400710922  0.27182400460693196  1.0000
  H   H7        1.0  0.7781090274330714  0.8251377595987426  0.7718240041191387  1.0000
  H   H8        1.0  0.2218909723666953  0.3251377597087976  0.7281759952708334  1.0000
  H   H9        1.0  0.25828476283126656  0.9935947615454175  0.3654157729685471  1.0000
  H   H10       1.0  0.7417152376325687  0.49359476165547245  0.13458422674177123  1.0000
  H   H11       1.0  0.7417152376533794  0.006405238234472443  0.6345842272508557  1.0000
  H   H12       1.0  0.25828476285207735  0.5064052381244174  0.8654157734776315  1.0000
  H   H13       1.0  0.5406201071995115  0.28526045400841776  0.46439505245035523  1.0000
  H   H14       1.0  0.45937989256468026  0.7852604538983626  0.035604947915203265  1.0000
  H   H15       1.0  0.4593798925824678  0.7147395457714721  0.53560494742741  1.0000
  H   H16       1.0  0.540620107217299  0.21473954588152722  0.9643950519625621  1.0000
  H   H17       1.0  0.485485637851534  0.4904224148493391  0.3413028426950947  1.0000
  H   H18       1.0  0.5145143619126576  0.9904224147392839  0.15869715767046388  1.0000
  H   H19       1.0  0.5145143619304452  0.5095775849305509  0.6586971571826706  1.0000
  H   H20       1.0  0.48548563786932153  0.009577585040605924  0.8413028422073016  1.0000
  H   H21       1.0  0.37680563248598603  0.19142289821829464  0.2125105853072907  1.0000
  H   H22       1.0  0.6231943672751825  0.691422899749727  0.2874894140613903  1.0000
  H   H23       1.0  0.6231943672959932  0.8085771015615953  0.7874894145704747  1.0000
  H   H24       1.0  0.3768056325067968  0.3085771016716503  0.7125105858163752  1.0000
  H   H25       1.0  0.41492164520227803  0.9897234332807442  0.3473968338834424  1.0000
  H   H26       1.0  0.5850783545619136  0.4897234333907992  0.15260316648211616  1.0000
  H   H27       1.0  0.5850783545797011  0.010276566499145755  0.652603165994323  1.0000
  H   H28       1.0  0.4149216452200655  0.5102765663890907  0.8473968333956492  1.0000
  H   H29       1.0  0.386622792757517  0.24431547728329842  0.5201075063434454  1.0000
  H   H30       1.0  0.6133772070452729  0.7443154771732433  0.9798924940434043  1.0000
  H   H31       1.0  0.6133772070244622  0.7556845224965915  0.47989249353431995  1.0000
  H   H32       1.0  0.38662279273670624  0.2556845226066466  0.020107505834360963  1.0000
  H   H33       1.0  0.33559666634634805  0.4409652211014951  0.38692760682454075  1.0000
  H   H34       1.0  0.6644033341205103  0.9409652209914401  0.11307239388265522  1.0000
  H   H35       1.0  0.6644033334356312  0.5590347786783948  0.6130723930532246  1.0000
  H   H36       1.0  0.3355966663641356  0.05903477878844984  0.8869276063367475  1.0000
  H   H37       1.0  0.9796581950754525  0.45316363615406  0.29164378827716686  1.0000
  H   H38       1.0  0.02034180468571599  0.953163636044005  0.20835621109151398  1.0000
  H   H39       1.0  0.02034180470652676  0.5468363636258299  0.7083562116005984  1.0000
  H   H40       1.0  0.9796581950962632  0.04683636373588491  0.7916437887862513  1.0000
  H   H41       1.0  0.06935946060287775  0.5650312914683575  0.4269770787547399  1.0000
  H   H42       1.0  0.930640539161314  0.0650312915784125  0.07302292161081862  1.0000
  H   H43       1.0  0.9306405391791014  0.43496870831153245  0.5730229211230253  1.0000
  H   H44       1.0  0.0693594606206653  0.9349687082014774  0.9269770782669469  1.0000
  H   H45       1.0  0.06823459054919395  0.29126305835821675  0.387617085581911  1.0000
  H   H46       1.0  0.9317654092119745  0.7912630582481618  0.11238291378676987  1.0000
  H   H47       1.0  0.9317654092327853  0.7087369414216732  0.6123829142958543  1.0000
  H   H48       1.0  0.06823459057000472  0.20873694153172817  0.8876170860909954  1.0000
  H   H49       1.0  0.08668790081236102  0.4708698964729641  0.2742977196440315  1.0000
  H   H50       1.0  0.9133120996514743  0.9708698963629091  0.22570228006628684  1.0000
  H   H51       1.0  0.913312099672285  0.5291301033069257  0.7257022805753713  1.0000
  H   H52       1.0  0.08668790013050498  0.02913010341698078  0.7742977198114784  1.0000
  C   C1        1.0  0.4862275133021505  0.41441647320686276  0.44135389009259635  1.0000
  C   C2        1.0  0.5137724864620412  0.9144164730968077  0.058646110272962244  1.0000
  C   C3        1.0  0.5137724864798288  0.5855835265730271  0.558646109785169  1.0000
  C   C4        1.0  0.486227513319938  0.08558352668308221  0.9413538896048033  1.0000
  C   C5        1.0  0.3684797403614241  0.13194895095954004  0.31074935255300856  1.0000
  C   C6        1.0  0.6315202594027675  0.631948950849485  0.18925064781255  1.0000
  C   C7        1.0  0.6315202594205552  0.8680510488203498  0.6892506473247568  1.0000
  C   C8        1.0  0.36847974037921166  0.3680510489304049  0.8107493520652154  1.0000
  C   C9        1.0  0.3900446798721439  0.3128853988134781  0.4205771128471162  1.0000
  C   C10       1.0  0.6099553205916913  0.812885398703423  0.07942288686320217  1.0000
  C   C11       1.0  0.6099553206125021  0.6871146009664117  0.5794228873722866  1.0000
  C   C12       1.0  0.3900446798929547  0.18711460107646685  0.9205771133562007  1.0000
  N   N1        1.0  0.27034747708770174  0.051157843663227634  0.2749785850632163  1.0000
  N   N2        1.0  0.7296525233791566  0.5511578435531725  0.2250214156439796  1.0000
  N   N3        1.0  0.7296525233969444  0.9488421561166623  0.7250214151561865  1.0000
  N   N4        1.0  0.2703474771054893  0.4488421562267173  0.7749785845754231  1.0000
  N   N5        1.0  0.05065969147816342  0.44836856904807276  0.3458262318524579  1.0000
  N   N6        1.0  0.949340308283005  0.9483685689380177  0.1541737675162229  1.0000
  N   N7        1.0  0.9493403083038158  0.5516314307318172  0.6541737680253074  1.0000
  N   N8        1.0  0.05065969149897419  0.05163143084187219  0.8458262323615424  1.0000
  O   O1        1.0  0.11329755402764415  0.48174062560960124  0.9050539610041983  1.0000
  O   O2        1.0  0.8867024457751458  0.9817406254995461  0.5949460393826514  1.0000
  O   O3        1.0  0.886702445754335  0.5182593741702887  0.09494603887356702  1.0000
  O   O4        1.0  0.11329755400683338  0.01825937428034371  0.40505396049511383  1.0000
  O   O5        1.0  0.10270079831421011  0.7636661172185819  0.07376518898891976  1.0000
  O   O6        1.0  0.8972992014499817  0.263666117328637  0.4262348113766388  1.0000
  O   O7        1.0  0.8972992014677691  0.23633388256130794  0.9262348108888456  1.0000
  O   O8        1.0  0.10270079833199765  0.7363338824512529  0.5737651885011266  1.0000
  O   O9        1.0  0.14470417021541976  0.38851726681099885  0.1525696207373831  1.0000
  O   O10       1.0  0.8552958302484155  0.8885172667009438  0.34743037897293527  1.0000
  O   O11       1.0  0.8552958302692264  0.6114827329688911  0.8474303794820196  1.0000
  O   O12       1.0  0.14470417023623053  0.11148273307894611  0.6525696212464676  1.0000
  S   S1        1.0  0.1525933349573893  0.5632158917330004  0.05257018521200808  1.0000
  S   S2        1.0  0.8474066648068025  0.06321589184305546  0.4474298151535504  1.0000
  S   S3        1.0  0.8474066648245899  0.4367841080468895  0.9474298146657573  1.0000
  S   S4        1.0  0.15259333497517685  0.9367841079368344  0.5525701847242149  1.0000
  S   S5        1.0  0.2890750090237445  0.6376393131026756  0.08951031524928381  1.0000
  S   S6        1.0  0.7109249907404472  0.13763931321273065  0.4104896851162748  1.0000
  S   S7        1.0  0.7109249907582347  0.3623606866772143  0.9104896846284816  1.0000
  S   S8        1.0  0.289075009041532  0.8623606865671593  0.5895103147614906  1.0000
