data_image0
_chemical_formula_structural       H32C32N16O12
_chemical_formula_sum              "H32 C32 N16 O12"
_cell_length_a       10.716652996533124
_cell_length_b       11.763124396710072
_cell_length_c       7.265265612791289
_cell_angle_alpha    90.0
_cell_angle_beta     93.42361510499539
_cell_angle_gamma    90.0

_space_group_name_H-M_alt    "P 1"
_space_group_IT_number       1

loop_
  _space_group_symop_operation_xyz
  'x, y, z'

loop_
  _atom_site_type_symbol
  _atom_site_label
  _atom_site_symmetry_multiplicity
  _atom_site_fract_x
  _atom_site_fract_y
  _atom_site_fract_z
  _atom_site_occupancy
  H   H1        1.0  0.4299558892322504  0.5421944854875276  0.1717564968055899  1.0000
  H   H2        1.0  0.5700441109160883  0.04219448534768678  0.3282435023322406  1.0000
  H   H3        1.0  0.5700441110786213  0.457805514792154  0.8282435030833591  1.0000
  H   H4        1.0  0.42995588939478324  0.9578055149319947  0.6717564975567085  1.0000
  H   H5        1.0  0.42213565710224804  0.18869882313076664  0.1921209988639481  1.0000
  H   H6        1.0  0.5778643421048137  0.6886988232706074  0.30787900155777015  1.0000
  H   H7        1.0  0.5778643422738509  0.8113011771489148  0.8078790009330828  1.0000
  H   H8        1.0  0.4221356572712851  0.31130117700907406  0.6921209982392609  1.0000
  H   H9        1.0  0.7152295788500858  0.3663024783793929  0.4709666211492055  1.0000
  H   H10       1.0  0.28477042129825303  0.8663024785192336  0.029033377988624993  1.0000
  H   H11       1.0  0.2847704214607859  0.6336975219002886  0.5290333787397437  1.0000
  H   H12       1.0  0.7152295780778458  0.13369752176044786  0.970966621808406  1.0000
  H   H13       1.0  0.8109692064586205  0.5246491520336263  0.6985398944912704  1.0000
  H   H14       1.0  0.18903079402128828  0.024649151893785456  0.8014601047729915  1.0000
  H   H15       1.0  0.18903079385225124  0.4753508482460553  0.30146010539767876  1.0000
  H   H16       1.0  0.8109692062895834  0.9753508475357817  0.1985398951159576  1.0000
  H   H17       1.0  0.1845098769988799  0.39012993956635356  0.7823333165249006  1.0000
  H   H18       1.0  0.815490122546256  0.8901299397061944  0.7176666826474432  1.0000
  H   H19       1.0  0.815490122377219  0.6098700607133279  0.21766668327213032  1.0000
  H   H20       1.0  0.18450987776461575  0.10987006057348715  0.28233331724150607  1.0000
  H   H21       1.0  0.8902365674699432  0.2144920911238228  0.4640571757159016  1.0000
  H   H22       1.0  0.10976343267189152  0.7144920904135493  0.035942824797734814  1.0000
  H   H23       1.0  0.10976343284092857  0.7855079091558588  0.5359428241730475  1.0000
  H   H24       1.0  0.8902365667042075  0.2855079090160179  0.9640571749992961  1.0000
  H   H25       1.0  0.029605613486505002  0.544744665098685  0.8367966520541638  1.0000
  H   H26       1.0  0.9703943869868995  0.044744664958844334  0.663203348585904  1.0000
  H   H27       1.0  0.9703943868243666  0.4552553351809964  0.16320334783478543  1.0000
  H   H28       1.0  0.02960561332397211  0.9552553344707229  0.33679665130304504  1.0000
  H   H29       1.0  0.11597045441082189  0.22262159029215137  0.5899876391720398  1.0000
  H   H30       1.0  0.8840295451343141  0.7226215904319921  0.9100123600003039  1.0000
  H   H31       1.0  0.884029544965277  0.7773784099875302  0.41001236062499125  1.0000
  H   H32       1.0  0.11597045517655771  0.27737840984768936  0.08998763988864515  1.0000
  C   C1        1.0  0.40612654799161313  0.36544065632786077  0.1644499895223535  1.0000
  C   C2        1.0  0.5938734521567257  0.8654406564677015  0.335550009615477  1.0000
  C   C3        1.0  0.5938734523192585  0.6345593439518207  0.8355500103665956  1.0000
  C   C4        1.0  0.406126548154146  0.13455934381197995  0.6644499902734722  1.0000
  C   C5        1.0  0.5731419685853375  0.2633083563127383  0.33736190753800194  1.0000
  C   C6        1.0  0.4268580315564971  0.7633083564525791  0.16263809297563445  1.0000
  C   C7        1.0  0.42685803172553405  0.736691643116829  0.6626380923509471  1.0000
  C   C8        1.0  0.5731419678196017  0.23669164382710248  0.8373619068213966  1.0000
  C   C9        1.0  0.5760905978286375  0.4679580768132953  0.32879033892298476  1.0000
  C   C10       1.0  0.4239094023131972  0.9679580769531361  0.17120966159065162  1.0000
  C   C11       1.0  0.4239094015474614  0.5320419226162718  0.6712096608740462  1.0000
  C   C12       1.0  0.5760905979911702  0.03204192332654542  0.8287903396741034  1.0000
  C   C13       1.0  0.9263463142166934  0.28571176897015316  0.5479053421591724  1.0000
  C   C14       1.0  0.07365368532193811  0.785711769109994  0.9520946583889771  1.0000
  C   C15       1.0  0.07365368515940521  0.714288230459414  0.4520946576378585  1.0000
  C   C16       1.0  0.9263463140476565  0.2142882303195733  0.04790534278385977  1.0000
  C   C17       1.0  0.08874392397080724  0.38407645176851  0.7245635715519473  1.0000
  C   C18       1.0  0.9112560765025974  0.8840764519083508  0.7754364290881205  1.0000
  C   C19       1.0  0.9112560763400646  0.6159235476610572  0.27543642833700177  1.0000
  C   C20       1.0  0.0887439238017702  0.11592354837133068  0.2245635721766346  1.0000
  C   C21       1.0  0.0026872348322730124  0.4698852025696411  0.7557909793713649  1.0000
  C   C22       1.0  0.9973127647063588  0.969885202709482  0.7442090211767848  1.0000
  C   C23       1.0  0.9973127654785987  0.5301147977100403  0.2442090205175843  1.0000
  C   C24       1.0  0.002687234663235962  0.03011479757019959  0.2557909799960521  1.0000
  C   C25       1.0  0.8810714142836966  0.45930623852886265  0.679109985705299  1.0000
  C   C26       1.0  0.11892858618970792  0.9593062386687033  0.8208900149347688  1.0000
  C   C27       1.0  0.11892858602717502  0.5406937617508187  0.3208900141836502  1.0000
  C   C28       1.0  0.8810714141146597  0.04069376161097808  0.17910998632998618  1.0000
  C   C29       1.0  0.04999743753899386  0.2900681438814252  0.6184909248693781  1.0000
  C   C30       1.0  0.950002562006142  0.7900681440212659  0.8815090743029655  1.0000
  C   C31       1.0  0.9500025618371049  0.7099318563982563  0.38150907492765296  1.0000
  C   C32       1.0  0.049997438304729684  0.20993185625841557  0.11849092558598348  1.0000
  N   N1        1.0  0.46874135288758423  0.4642438714264833  0.21565641051431755  1.0000
  N   N2        1.0  0.5312586472542504  0.964243871566324  0.28434358999931886  1.0000
  N   N3        1.0  0.5312586474232874  0.5357561288531981  0.7843435893746316  1.0000
  N   N4        1.0  0.4687413530566213  0.0357561287133574  0.7156564098896303  1.0000
  N   N5        1.0  0.4623220700704515  0.26679106283001847  0.23177245106226552  1.0000
  N   N6        1.0  0.537677930071383  0.7667910621197449  0.26822754945137084  1.0000
  N   N7        1.0  0.5376779302404202  0.733208937449663  0.7682275488266836  1.0000
  N   N8        1.0  0.46232207023948857  0.23320893730982226  0.7317724504375782  1.0000
  N   N9        1.0  0.6258491103841283  0.36579107428324287  0.38474701481299584  1.0000
  N   N10       1.0  0.37415088975770633  0.8657910735729694  0.11525298570064056  1.0000
  N   N11       1.0  0.37415088992674334  0.6342089259964386  0.6152529850759533  1.0000
  N   N12       1.0  0.6258491096183926  0.1342089258565979  0.8847470140963903  1.0000
  N   N13       1.0  0.8438543769144785  0.3687551609343839  0.5775218362611867  1.0000
  N   N14       1.0  0.15614562262415324  0.8687551610742247  0.9224781642869628  1.0000
  N   N15       1.0  0.15614562339639323  0.6312448384951833  0.4224781636277624  1.0000
  N   N16       1.0  0.8438543767519455  0.13124483835534256  0.07752183551006807  1.0000
  O   O1        1.0  0.308166752950146  0.3655523706952075  0.06661218325556101  1.0000
  O   O2        1.0  0.6918332471916886  0.8655523708350482  0.4333878172580754  1.0000
  O   O3        1.0  0.6918332473607256  0.6344476295844739  0.9333878166333882  1.0000
  O   O4        1.0  0.3081667521844102  0.13444762944463318  0.5666121825389555  1.0000
  O   O5        1.0  0.6229786739377886  0.17235345233338095  0.39034173930056437  1.0000
  O   O6        1.0  0.37702132527577725  0.6723534524732218  0.10965825974534799  1.0000
  O   O7        1.0  0.37702132543831024  0.8276465470961863  0.6096582604964667  1.0000
  O   O8        1.0  0.6229786741003215  0.3276465478064598  0.890341740051683  1.0000
  O   O9        1.0  0.6258800944172702  0.5591968067463197  0.3803773984179562  1.0000
  O   O10       1.0  0.37411990479629564  0.05919680660647891  0.11962260062795613  1.0000
  O   O11       1.0  0.3741199049588286  0.44080319353336184  0.6196226013790749  1.0000
  O   O12       1.0  0.6258800945798031  0.9408031936732025  0.8803773991690748  1.0000
