data_image0
_chemical_formula_structural       H42C34N6O10S4Br4
_chemical_formula_sum              "H42 C34 N6 O10 S4 Br4"
_cell_length_a       8.86997782297629
_cell_length_b       10.644596217434932
_cell_length_c       12.439593830181195
_cell_angle_alpha    69.08865423368667
_cell_angle_beta     80.34450727132818
_cell_angle_gamma    76.47798439593534

_space_group_name_H-M_alt    "P 1"
_space_group_IT_number       1

loop_
  _space_group_symop_operation_xyz
  'x, y, z'

loop_
  _atom_site_type_symbol
  _atom_site_label
  _atom_site_symmetry_multiplicity
  _atom_site_fract_x
  _atom_site_fract_y
  _atom_site_fract_z
  _atom_site_occupancy
  H   H1        1.0  0.6315819377661284  0.2682938254574894  0.3834142430799343  1.0000
  H   H2        1.0  0.3684180620072625  0.7317061748233571  0.6165857572748794  1.0000
  H   H3        1.0  0.6065806931810497  0.5333175187567073  0.00413024688469449  1.0000
  H   H4        1.0  0.3934193068575747  0.46668248055873957  0.9958697534680553  1.0000
  H   H5        1.0  0.7173590278914077  0.7419519592768101  0.9361667377298907  1.0000
  H   H6        1.0  0.2826409719854201  0.25804804134581383  0.06383326176063561  1.0000
  H   H7        1.0  0.04567377675214293  0.5527373098467554  0.19636187367922533  1.0000
  H   H8        1.0  0.9543262231246848  0.44726269077586867  0.8036381258113009  1.0000
  H   H9        1.0  0.931144960467688  0.344012484270266  0.26621353811872916  1.0000
  H   H10       1.0  0.0688550396743732  0.6559875153869582  0.7337864613697334  1.0000
  H   H11       1.0  0.2913333400779043  0.6281513087992077  0.1283551350672713  1.0000
  H   H12       1.0  0.7086666597989234  0.3718486918234163  0.8716448644232552  1.0000
  H   H13       1.0  0.34091131495061694  0.8647364773497221  0.06724244689963386  1.0000
  H   H14       1.0  0.6590886850880073  0.13526352196572475  0.932757553453116  1.0000
  H   H15       1.0  0.6302692083710949  0.7417557353840749  0.34846397418073954  1.0000
  H   H16       1.0  0.3697307916675295  0.2582442639313719  0.6515360261720102  1.0000
  H   H17       1.0  0.5802385684214865  0.5063161168942907  0.4100954647043779  1.0000
  H   H18       1.0  0.4197614317205748  0.49368388276293357  0.5899045347840847  1.0000
  H   H19       1.0  0.9545903732135089  0.3738492936555657  0.44503048555492863  1.0000
  H   H20       1.0  0.0454096277925496  0.626150706962999  0.5549695139325507  1.0000
  H   H21       1.0  0.08059060619654881  0.33423656276778196  0.5548182785848229  1.0000
  H   H22       1.0  0.9194093935768418  0.6657634375130648  0.44518172176999093  1.0000
  H   H23       1.0  0.8816962860266928  0.41972602383815044  0.5704969252635639  1.0000
  H   H24       1.0  0.11830371374669786  0.5802739764426963  0.42950307509124985  1.0000
  H   H25       1.0  0.8855777407757753  0.06508781583371762  0.7615426885128279  1.0000
  H   H26       1.0  0.11442225899761534  0.9349121844471291  0.2384573118419859  1.0000
  H   H27       1.0  0.9458957952318978  0.21453270869188482  0.7552186440679598  1.0000
  H   H28       1.0  0.0541042045414932  0.7854672915889617  0.24478135628685393  1.0000
  H   H29       1.0  0.08273179208026496  0.08334731109786167  0.7146958609083505  1.0000
  H   H30       1.0  0.9172682079583594  0.9166526882175852  0.28530413944439936  1.0000
  H   H31       1.0  0.5467511372747771  0.10791291042621483  0.5441929198942442  1.0000
  H   H32       1.0  0.4532488624986138  0.8920870898546318  0.45580708046056945  1.0000
  H   H33       1.0  0.6090511463725143  0.929486723131168  0.6154115434212364  1.0000
  H   H34       1.0  0.3909488535043134  0.07051327749145614  0.38458845606928993  1.0000
  H   H35       1.0  0.672966524303041  0.0053625520395455  0.46651573857845047  1.0000
  H   H36       1.0  0.32703347547034983  0.9946374482413011  0.5334842617763633  1.0000
  H   H37       1.0  0.007929013284318834  0.9494210266067569  0.6279415022604641  1.0000
  H   H38       1.0  0.9920709867543057  0.050578972708689884  0.37205849809228564  1.0000
  H   H39       1.0  0.8995081030331915  0.8540719406128748  0.5888522244051433  1.0000
  H   H40       1.0  0.10049189710886978  0.14592805904434936  0.4111477750833192  1.0000
  H   H41       1.0  0.8605368451589922  0.8715582967636115  0.7282674886628238  1.0000
  H   H42       1.0  0.13946315471783546  0.1284417038590125  0.27173251082770267  1.0000
  C   C1        1.0  0.7610810533283787  0.42619491363823114  0.14042568762740787  1.0000
  C   C2        1.0  0.23891894671024552  0.5738050856772157  0.859574312725342  1.0000
  C   C3        1.0  0.7012433048391085  0.5370419379459379  0.047472252569835  1.0000
  C   C4        1.0  0.2987566949342825  0.4629580623349086  0.9525277477849786  1.0000
  C   C5        1.0  0.7639504825377065  0.6556567908181912  0.008622916685432226  1.0000
  C   C6        1.0  0.23604951750091796  0.3443432084972557  0.9913770836673176  1.0000
  C   C7        1.0  0.8856134914131387  0.6607296035011322  0.06382869479795007  1.0000
  C   C8        1.0  0.11438650872892266  0.3392703961560919  0.9361713046905125  1.0000
  C   C9        1.0  0.9477527038744973  0.5496124177851074  0.15583551080189267  1.0000
  C   C10       1.0  0.052247296164127224  0.4503875815303394  0.8441644895508571  1.0000
  C   C11       1.0  0.884511793418968  0.43141157637148875  0.19454307120316067  1.0000
  C   C12       1.0  0.1154882064578597  0.5685884242511354  0.8054569282873657  1.0000
  C   C13       1.0  0.42883304497450586  0.5549435174844155  0.27442316057576194  1.0000
  C   C14       1.0  0.5711669551675554  0.4450564821728088  0.7255768389127004  1.0000
  C   C15       1.0  0.3629458077800263  0.6539687446466413  0.17748720636936138  1.0000
  C   C16       1.0  0.6370541922585979  0.3460312546688055  0.8225127939833884  1.0000
  C   C17       1.0  0.39158432520361264  0.7866260517489999  0.1426307289038821  1.0000
  C   C18       1.0  0.608415674673215  0.21337394887362415  0.8573692705866444  1.0000
  C   C19       1.0  0.4872657498345906  0.8166935044367574  0.20476724899399243  1.0000
  C   C20       1.0  0.5127342503074708  0.18330649522046677  0.7952327504944701  1.0000
  C   C21       1.0  0.5562329024591774  0.7169709199049692  0.3004130975948702  1.0000
  C   C22       1.0  0.44376709741765047  0.28302908071765487  0.6995869018956562  1.0000
  C   C23       1.0  0.5264451869384318  0.584914596872802  0.33594430789144336  1.0000
  C   C24       1.0  0.47355481320362963  0.41508540278442224  0.664055691597019  1.0000
  C   C25       1.0  0.8057007947041914  0.1774330727646108  0.5490590600478116  1.0000
  C   C26       1.0  0.19429920533443307  0.822566926550836  0.4509409403049384  1.0000
  C   C27       1.0  0.9606084165378607  0.3414273761689297  0.5383694589811319  1.0000
  C   C28       1.0  0.03939158350076366  0.6585726231465171  0.46163054137161796  1.0000
  C   C29       1.0  0.9611490147910924  0.13797908949394175  0.7121267320849248  1.0000
  C   C30       1.0  0.038850984982298484  0.8620209107869049  0.287873268269889  1.0000
  C   C31       1.0  0.6442911770811891  0.021635585950425622  0.5508894547922281  1.0000
  C   C32       1.0  0.35570882295743517  0.9783644133650212  0.44911054556052166  1.0000
  C   C33       1.0  0.8928522819068029  0.9248203924253777  0.6365467051311324  1.0000
  C   C34       1.0  0.10714771797002494  0.07517960819724635  0.3634532943593939  1.0000
  N   N1        1.0  0.5627864978793935  0.28552877273520066  0.3125585202845044  1.0000
  N   N2        1.0  0.4372135021592308  0.7144712265802461  0.6874414800682455  1.0000
  N   N3        1.0  0.9174988650723044  0.2074994456553663  0.594356626419032  1.0000
  N   N4        1.0  0.08250113470108643  0.7925005546254804  0.4056433739357818  1.0000
  N   N5        1.0  0.7777976405509535  0.04703006726410054  0.5882862261845019  1.0000
  N   N6        1.0  0.2222023594876708  0.9529699320513465  0.4117137741682479  1.0000
  O   O1        1.0  0.7961494056270801  0.15979278962707424  0.23630829033171924  1.0000
  O   O2        1.0  0.2038505941463108  0.8402072106537722  0.7636917100230944  1.0000
  O   O3        1.0  0.5812095018508889  0.28417869263928297  0.10731723767203433  1.0000
  O   O4        1.0  0.4187904981877355  0.715821306676164  0.8926827626807154  1.0000
  O   O5        1.0  0.3424746709323971  0.34626316936142604  0.44296960409387853  1.0000
  O   O6        1.0  0.6575253291062272  0.653736829954021  0.5570303962588712  1.0000
  O   O7        1.0  0.2932150139201257  0.3799842276994092  0.24159940522334591  1.0000
  O   O8        1.0  0.7067849859567021  0.6200157729232149  0.7584005942671804  1.0000
  O   O9        1.0  0.7305528111578791  0.27170867219177747  0.4703692170098167  1.0000
  O   O10       1.0  0.26944718871894857  0.7282913284308463  0.5296307824807097  1.0000
  S   S1        1.0  0.6768189082590389  0.2778738313581776  0.1928923377084206  1.0000
  S   S2        1.0  0.32318109151435187  0.7221261689226689  0.8071076626463931  1.0000
  S   S3        1.0  0.3905655277552772  0.38722683272566294  0.32035575977999003  1.0000
  S   S4        1.0  0.6094344720181137  0.6127731675551839  0.6796442405748236  1.0000
  Br  Br1       1.0  0.9705140805054041  0.8232207042742575  0.01041556206925503  1.0000
  Br  Br2       1.0  0.029485919267986757  0.17677929600658926  0.9895844382855588  1.0000
  Br  Br3       1.0  0.5254970120294378  0.9973847385781545  0.1597391910242499  1.0000
  Br  Br4       1.0  0.47450298774395316  0.0026152617026920055  0.8402608093305639  1.0000
