data_image0
_chemical_formula_structural       H42C34N6O10S4Cl4
_chemical_formula_sum              "H42 C34 N6 O10 S4 Cl4"
_cell_length_a       8.911728788550077
_cell_length_b       10.548378396515933
_cell_length_c       12.239176601548523
_cell_angle_alpha    69.12560961243933
_cell_angle_beta     80.0522301485049
_cell_angle_gamma    76.84400169974401

_space_group_name_H-M_alt    "P 1"
_space_group_IT_number       1

loop_
  _space_group_symop_operation_xyz
  'x, y, z'

loop_
  _atom_site_type_symbol
  _atom_site_label
  _atom_site_symmetry_multiplicity
  _atom_site_fract_x
  _atom_site_fract_y
  _atom_site_fract_z
  _atom_site_occupancy
  H   H1        1.0  0.6321314409302327  0.26893512271327835  0.3869013161680132  1.0000
  H   H2        1.0  0.3678685580590119  0.7310648778945172  0.6130986835443901  1.0000
  H   H3        1.0  0.60519207833973  0.5380396866876117  0.004550556187921926  1.0000
  H   H4        1.0  0.39480792090585776  0.4619603129475872  0.9954494435220335  1.0000
  H   H5        1.0  0.7187593579635906  0.7479916643628974  0.9354494411308201  1.0000
  H   H6        1.0  0.2812406421496129  0.2520083362406657  0.06455055857852238  1.0000
  H   H7        1.0  0.05209042548266405  0.5511924370071666  0.19191004155398014  1.0000
  H   H8        1.0  0.9479095746305396  0.4488075635963966  0.8080899581553624  1.0000
  H   H9        1.0  0.9335338931455612  0.3415910035867186  0.26382428561171595  1.0000
  H   H10       1.0  0.06646610696764226  0.6584089970168446  0.7361757140976266  1.0000
  H   H11       1.0  0.29167988530940075  0.6305145178243557  0.12874246534748163  1.0000
  H   H12       1.0  0.7083201148038029  0.3694854827792073  0.8712575343618609  1.0000
  H   H13       1.0  0.34114143335444524  0.8703234185801174  0.06374028324543635  1.0000
  H   H14       1.0  0.6588585670151015  0.12967658105084914  0.9362597164614582  1.0000
  H   H15       1.0  0.6381333662847025  0.7501472502736936  0.34129974209195085  1.0000
  H   H16       1.0  0.36186663382850104  0.24985275032986948  0.6587002576173917  1.0000
  H   H17       1.0  0.5875938005041221  0.511720895926945  0.4075539437691281  1.0000
  H   H18       1.0  0.41240619837307546  0.48827910433718497  0.5924460568221807  1.0000
  H   H19       1.0  0.9511370942263584  0.3770367824689278  0.4475908080003229  1.0000
  H   H20       1.0  0.04886290603114131  0.622963216818373  0.552409192585477  1.0000
  H   H21       1.0  0.08455136242223821  0.33112251246006447  0.5537950815696734  1.0000
  H   H22       1.0  0.9154486379473086  0.668877487170902  0.44620491813722113  1.0000
  H   H23       1.0  0.8904690238946957  0.41798731212011525  0.5790261043407882  1.0000
  H   H24       1.0  0.10953097610646101  0.582012688139782  0.4209738962474598  1.0000
  H   H25       1.0  0.8871075106089312  0.0605076733748403  0.7674177611965225  1.0000
  H   H26       1.0  0.11289248863665637  0.9394923262603588  0.23258223851343277  1.0000
  H   H27       1.0  0.94795257523033  0.2109241658365522  0.7625548217112718  1.0000
  H   H28       1.0  0.052047424770826585  0.7890758344233452  0.23744517887697614  1.0000
  H   H29       1.0  0.08318532065493424  0.08084519132126096  0.7175824270719721  1.0000
  H   H30       1.0  0.9168146794582693  0.9191548092823021  0.28241757263737044  1.0000
  H   H31       1.0  0.5455997613054431  0.10673773981690528  0.5513510454137971  1.0000
  H   H32       1.0  0.4544002390641036  0.8932622598140612  0.4486489542930974  1.0000
  H   H33       1.0  0.6047261826518209  0.9275365400542225  0.6245217826668442  1.0000
  H   H34       1.0  0.39527381622537655  0.07246346020990753  0.37547821792446456  1.0000
  H   H35       1.0  0.6682614656486937  0.002262061697910936  0.47248808101814077  1.0000
  H   H36       1.0  0.3317385344645099  0.9977379389056523  0.5275119186912017  1.0000
  H   H37       1.0  0.00575821491227971  0.9461444256342294  0.6309725622535384  1.0000
  H   H38       1.0  0.9942417852009239  0.05385557496933379  0.36902743745580424  1.0000
  H   H39       1.0  0.8970864460312524  0.852955010450099  0.588097830796045  1.0000
  H   H40       1.0  0.10291355422624729  0.1470449888372014  0.4119021697897549  1.0000
  H   H41       1.0  0.8595133035879482  0.8648412452329689  0.7323267681839567  1.0000
  H   H42       1.0  0.14048669641320813  0.1351587550269287  0.26767323240429114  1.0000
  C   C1        1.0  0.7616799016370526  0.4276159776483206  0.13937023150625616  1.0000
  C   C2        1.0  0.23832009847615082  0.5723840229552426  0.8606297682030866  1.0000
  C   C3        1.0  0.7014306442389857  0.5407551931020765  0.046907978101373246  1.0000
  C   C4        1.0  0.2985693557621709  0.45924480715782084  0.9530920224868747  1.0000
  C   C5        1.0  0.7658326131304851  0.6597009211120818  0.0074386927065364546  1.0000
  C   C6        1.0  0.23416738698271852  0.34029907949148136  0.992561307002806  1.0000
  C   C7        1.0  0.8900852086658356  0.6631549068905915  0.061179225931121746  1.0000
  C   C8        1.0  0.10991479133532091  0.33684509336930585  0.9388207746571262  1.0000
  C   C9        1.0  0.9524224967323982  0.5492402435000938  0.1526567330001247  1.0000
  C   C10       1.0  0.04757750363714827  0.45075975613087277  0.8473432667067698  1.0000
  C   C11       1.0  0.8871478525467337  0.43089163563056315  0.19237668261507493  1.0000
  C   C12       1.0  0.11285214771076596  0.5691083636567374  0.807623317970725  1.0000
  C   C13       1.0  0.43264692834310553  0.5589528499245426  0.27353764157887495  1.0000
  C   C14       1.0  0.567353072026441  0.4410471497064238  0.7264623581280196  1.0000
  C   C15       1.0  0.3645861260742739  0.6580209486928889  0.17643500039235693  1.0000
  C   C16       1.0  0.6354138741832259  0.34197905059441186  0.8235650001934431  1.0000
  C   C17       1.0  0.3930660437454359  0.7921285011815635  0.13944501691750716  1.0000
  C   C18       1.0  0.6069339563677677  0.2078714994219997  0.8605549827918354  1.0000
  C   C19       1.0  0.4911217769075122  0.8239030458248646  0.199524327723037  1.0000
  C   C20       1.0  0.5088782234620344  0.17609695380610205  0.8004756719838575  1.0000
  C   C21       1.0  0.5621650586357425  0.7238085460048411  0.29522831343463846  1.0000
  C   C22       1.0  0.43783494060984524  0.2761914536303579  0.7047716862753168  1.0000
  C   C23       1.0  0.532481268638713  0.5903207149879879  0.33309288953796534  1.0000
  C   C24       1.0  0.4675187314744905  0.40967928561557526  0.6669071101713773  1.0000
  C   C25       1.0  0.8055769142450204  0.1762515056857906  0.5533473962881709  1.0000
  C   C26       1.0  0.19442308575613598  0.8237484945741067  0.4466526043000771  1.0000
  C   C27       1.0  0.9629296212338109  0.3406202425967341  0.5417993504166115  1.0000
  C   C28       1.0  0.03707037913573581  0.6593797570342325  0.458200649290283  1.0000
  C   C29       1.0  0.962245555358759  0.13490617738828903  0.7174812448814867  1.0000
  C   C30       1.0  0.03775444501078768  0.8650938222426773  0.2825187548254078  1.0000
  C   C31       1.0  0.6414387640970167  0.019526423616068118  0.5580193116940927  1.0000
  C   C32       1.0  0.3585612360161867  0.980473576987495  0.44198068801525  1.0000
  C   C33       1.0  0.8910137358458177  0.9213536683147012  0.6393897810941044  1.0000
  C   C34       1.0  0.10898626426738574  0.0786463322888619  0.3606102186152381  1.0000
  N   N1        1.0  0.5633530695075801  0.286623549974778  0.31518140121587845  1.0000
  N   N2        1.0  0.4366469308619667  0.7133764496561885  0.6848185984910161  1.0000
  N   N3        1.0  0.9176980104163176  0.20616759996809517  0.5985626645890303  1.0000
  N   N4        1.0  0.08230198969688611  0.7938324006354679  0.4014373351203123  1.0000
  N   N5        1.0  0.7760394224237446  0.04481439064466929  0.5941040994809037  1.0000
  N   N6        1.0  0.2239605775774119  0.9551856096152279  0.40589590110734436  1.0000
  O   O1        1.0  0.7937288101222998  0.15958187996432158  0.23553687373188267  1.0000
  O   O2        1.0  0.2062711899909037  0.8404181206392416  0.7644631259774599  1.0000
  O   O3        1.0  0.5791643142353889  0.2854455111287323  0.106918576325659  1.0000
  O   O4        1.0  0.42083568501019886  0.7145544885064666  0.8930814233842963  1.0000
  O   O5        1.0  0.3443640985611421  0.35085490450736423  0.4473174979505759  1.0000
  O   O6        1.0  0.6556359003160552  0.6491450957567656  0.5526825026407329  1.0000
  O   O7        1.0  0.2962110408805889  0.3807527736822865  0.24365036417071084  1.0000
  O   O8        1.0  0.7037889592326148  0.6192472269212768  0.7563496355386318  1.0000
  O   O9        1.0  0.7315527286752951  0.2713714842676048  0.47391594161021017  1.0000
  O   O10       1.0  0.2684472703139495  0.728628516340191  0.5260840581021932  1.0000
  S   S1        1.0  0.6756664651721881  0.27858237939508573  0.19274676256538684  1.0000
  S   S2        1.0  0.32433353370500956  0.7214176208690442  0.8072532380259219  1.0000
  S   S3        1.0  0.3931593349682664  0.3896604780982757  0.32261631706331884  1.0000
  S   S4        1.0  0.6068406652892334  0.6103395211890249  0.677383683522481  1.0000
  Cl  Cl1       1.0  0.9702121427493863  0.8110567312755546  0.012146898547421266  1.0000
  Cl  Cl2       1.0  0.029787856384154546  0.18894326801597863  0.9878531020414394  1.0000
  Cl  Cl3       1.0  0.5258140260071691  0.9902313266333741  0.1560596467797447  1.0000
  Cl  Cl4       1.0  0.47418597410603436  0.009768673970189025  0.8439403529295979  1.0000
