data_image0
_chemical_formula_structural       H56C48N4O4I4
_chemical_formula_sum              "H56 C48 N4 O4 I4"
_cell_length_a       8.70874399068513
_cell_length_b       4.760751119915748
_cell_length_c       29.21185496515162
_cell_angle_alpha    90.0
_cell_angle_beta     96.42514004446403
_cell_angle_gamma    90.0

_space_group_name_H-M_alt    "P 1"
_space_group_IT_number       1

loop_
  _space_group_symop_operation_xyz
  'x, y, z'

loop_
  _atom_site_type_symbol
  _atom_site_label
  _atom_site_symmetry_multiplicity
  _atom_site_fract_x
  _atom_site_fract_y
  _atom_site_fract_z
  _atom_site_occupancy
  H   H1        1.0  0.4156271127042983  0.5778240808456045  0.305094678947648  1.0000
  H   H2        1.0  0.5843728873569192  0.07782408083675602  0.19490532095283464  1.0000
  H   H3        1.0  0.5843728877839824  0.4221759191720925  0.6949053211130558  1.0000
  H   H4        1.0  0.4156271119825877  0.922175919180941  0.805094679106506  1.0000
  H   H5        1.0  0.42075389905396093  0.43508693015581473  0.22410667833573844  1.0000
  H   H6        1.0  0.5792461011320212  0.9350869301646633  0.2758933219092321  1.0000
  H   H7        1.0  0.5792461002855459  0.5649130698618824  0.7758933217236023  1.0000
  H   H8        1.0  0.4207538993562595  0.06491306985303383  0.7241066781514718  1.0000
  H   H9        1.0  0.25267273038788035  0.04412234429169601  0.19100545395861318  1.0000
  H   H10       1.0  0.7473272696733371  0.5441223443005445  0.30899454594186954  1.0000
  H   H11       1.0  0.7473272689516265  0.955877655726001  0.8089945461007276  1.0000
  H   H12       1.0  0.2526727306901788  0.4558776557171525  0.6910054537743465  1.0000
  H   H13       1.0  0.0829624582273685  0.7919680434936754  0.2411993075738934  1.0000
  H   H14       1.0  0.917037541833849  0.29196804348482697  0.2588006923265893  1.0000
  H   H15       1.0  0.9170375421361475  0.20803195652402157  0.7588006921423225  1.0000
  H   H16       1.0  0.08296245750565791  0.7080319565328701  0.7411993077327514  1.0000
  H   H17       1.0  0.07904591342081402  0.9328368293443982  0.32241102007167916  1.0000
  H   H18       1.0  0.9209540866404035  0.43283682933554973  0.1775889798288035  1.0000
  H   H19       1.0  0.9209540859186929  0.06716317067329883  0.6775889799876614  1.0000
  H   H20       1.0  0.07904591384787732  0.5671631706821474  0.8224110202319004  1.0000
  H   H21       1.0  0.43233140783114143  0.9305209741941725  0.6387067825373557  1.0000
  H   H22       1.0  0.567668591810664  0.4305209741853239  0.8612932173377182  1.0000
  H   H23       1.0  0.5676685913836006  0.06947902582352461  0.3612932171774971  1.0000
  H   H24       1.0  0.4323314086776168  0.5694790258323732  0.13870678272298556  1.0000
  H   H25       1.0  0.5225397672837665  0.22706526192428444  0.615031273981803  1.0000
  H   H26       1.0  0.47746023235803897  0.7270652619331329  0.8849687258932709  1.0000
  H   H27       1.0  0.4774602320557404  0.7729347380934126  0.3849687260775376  1.0000
  H   H28       1.0  0.522539768005477  0.2729347380845641  0.11503127382294503  1.0000
  H   H29       1.0  0.4044146729482026  0.10267936459754504  0.5366165254970057  1.0000
  H   H30       1.0  0.5955853266936028  0.6026793646063936  0.9633834743780683  1.0000
  H   H31       1.0  0.5955853262665396  0.8973206333196432  0.4633834742178472  1.0000
  H   H32       1.0  0.404414673794678  0.3973206354113035  0.03661652568263552  1.0000
  H   H33       1.0  0.505598643409458  0.8061072136171478  0.5615956462319136  1.0000
  H   H34       1.0  0.49440135750588604  0.3061072136082993  0.9384043539890113  1.0000
  H   H35       1.0  0.49440135707882277  0.1938927864005493  0.43840435382879017  1.0000
  H   H36       1.0  0.5055986429823948  0.6938927864093978  0.06159564607169254  1.0000
  H   H37       1.0  0.270292291012468  0.6048725752441689  0.5773940844513219  1.0000
  H   H38       1.0  0.729707709902876  0.10487257523532036  0.922605915769603  1.0000
  H   H39       1.0  0.7297077094758128  0.3951274247735282  0.4226059156093819  1.0000
  H   H40       1.0  0.2702922905854047  0.8951274247823767  0.07739408429110081  1.0000
  H   H41       1.0  0.02420413478253201  0.8155076588142898  0.5616215355465333  1.0000
  H   H42       1.0  0.9757958660080472  0.3155076588054412  0.9383784643299038  1.0000
  H   H43       1.0  0.9757958657057486  0.18449234120340735  0.43837846451417045  1.0000
  H   H44       1.0  0.024204134355468768  0.6844923412122559  0.06162153538631223  1.0000
  H   H45       1.0  0.10987614769374368  0.10744019737983111  0.5364874441287095  1.0000
  H   H46       1.0  0.8901238520728264  0.6074401973886796  0.9635125560908523  1.0000
  H   H47       1.0  0.8901238527945371  0.892559802637866  0.4635125559319943  1.0000
  H   H48       1.0  0.1098761472666804  0.3925598026290174  0.03648744396848839  1.0000
  H   H49       1.0  0.05302711570399983  0.23981250463271528  0.6145389335639649  1.0000
  H   H50       1.0  0.9469728839378054  0.7398125046415639  0.885461066311109  1.0000
  H   H51       1.0  0.9469728836355069  0.7601874953849818  0.38546106649537565  1.0000
  H   H52       1.0  0.053027116550475255  0.2601874953761332  0.11453893374959485  1.0000
  H   H53       1.0  0.15618795407887212  0.9389413324507304  0.6387980088751007  1.0000
  H   H54       1.0  0.8438120467117072  0.4389413324418819  0.8612019910013363  1.0000
  H   H55       1.0  0.8438120464094085  0.06105866756696668  0.3612019911856031  1.0000
  H   H56       1.0  0.1561879537765736  0.5610586675758152  0.13879800905936737  1.0000
  C   C1        1.0  0.24545270200345362  0.26816878426163004  0.3193648770479305  1.0000
  C   C2        1.0  0.7545472980577638  0.7681687842704786  0.1806351228525522  1.0000
  C   C3        1.0  0.7545472973360533  0.731831215756067  0.6806351230114103  1.0000
  C   C4        1.0  0.24545270230575209  0.2318312157472185  0.8193648768636637  1.0000
  C   C5        1.0  0.3435788275484269  0.40459765307666157  0.2910876263638847  1.0000
  C   C6        1.0  0.6564211725127905  0.9045976530855101  0.20891237353659797  1.0000
  C   C7        1.0  0.6564211728150892  0.5954023469410356  0.7089123733523313  1.0000
  C   C8        1.0  0.34357882797549016  0.095402346932187  0.7910876265241058  1.0000
  C   C9        1.0  0.34538695101741596  0.3235536580679857  0.24535232395795675  1.0000
  C   C10       1.0  0.6546130490438015  0.8235536580768342  0.25464767594252596  1.0000
  C   C11       1.0  0.6546130494708647  0.6764463419497113  0.754647676102747  1.0000
  C   C12       1.0  0.34538695144447923  0.17644634194086287  0.7453523241181779  1.0000
  C   C13       1.0  0.25110859111596656  0.10442017183389278  0.2269732195947556  1.0000
  C   C14       1.0  0.7488914090700157  0.6044201718427413  0.27302678065021496  1.0000
  C   C15       1.0  0.7488914082235404  0.8955798281838042  0.7730267804645851  1.0000
  C   C16       1.0  0.251108591418265  0.39557982817495574  0.7269732194104889  1.0000
  C   C17       1.0  0.15624886244501646  0.964010263170661  0.2549826352028289  1.0000
  C   C18       1.0  0.8437511365921919  0.46401026316181243  0.24501736504077853  1.0000
  C   C19       1.0  0.8437511368944903  0.03598973684703606  0.7450173648565118  1.0000
  C   C20       1.0  0.1562488627473149  0.5359897368558846  0.7549826350185621  1.0000
  C   C21       1.0  0.1531868614422725  0.04349976396238603  0.3007595528440861  1.0000
  C   C22       1.0  0.8468131386189449  0.5434997639712346  0.1992404470563965  1.0000
  C   C23       1.0  0.8468131390460082  0.956500236055311  0.6992404472166176  1.0000
  C   C24       1.0  0.15318686059579711  0.45650023604646256  0.8007595526584563  1.0000
  C   C25       1.0  0.23851117142975112  0.3609577200562442  0.3653259903655837  1.0000
  C   C26       1.0  0.7614888287562311  0.8609577200650927  0.1346740098793868  1.0000
  C   C27       1.0  0.7614888279097557  0.6390422799614529  0.634674009693757  1.0000
  C   C28       1.0  0.23851117173204958  0.13904227995260432  0.865325990181317  1.0000
  C   C29       1.0  0.23292270272920532  0.4497683571490487  0.40449894292484206  1.0000
  C   C30       1.0  0.7670772974567769  0.9497683571578972  0.0955010573201285  1.0000
  C   C31       1.0  0.7670772977590755  0.5502316428686483  0.5955010571358618  1.0000
  C   C32       1.0  0.2329227030315039  0.05023164285979984  0.9044989427405754  1.0000
  C   C33       1.0  0.42117773076018256  0.08850548986636729  0.6108087178099332  1.0000
  C   C34       1.0  0.5788222688816228  0.5885054898752159  0.8891912820651408  1.0000
  C   C35       1.0  0.5788222685793243  0.9114945101513298  0.3891912822494075  1.0000
  C   C36       1.0  0.421177731606658  0.4114945101424813  0.11080871799556304  1.0000
  C   C37       1.0  0.40593254673564694  0.9440056215498057  0.5641178457030193  1.0000
  C   C38       1.0  0.5940674530309232  0.44400562154095724  0.9358821545165426  1.0000
  C   C39       1.0  0.59406745260386  0.05599437846789135  0.4358821543563214  1.0000
  C   C40       1.0  0.4059325474573576  0.5559943784767399  0.06411784554416129  1.0000
  C   C41       1.0  0.12753344261795183  0.949175494828213  0.5640736600796814  1.0000
  C   C42       1.0  0.8724665571486183  0.44917549481936453  0.9359263401398804  1.0000
  C   C43       1.0  0.872466556721555  0.05082450518948405  0.43592633997965935  1.0000
  C   C44       1.0  0.12753344333966238  0.5508245051983326  0.06407365992082328  1.0000
  C   C45       1.0  0.14926807926887628  0.09553967610221333  0.6106704849430842  1.0000
  C   C46       1.0  0.850731921521703  0.595539676111062  0.8893295149333529  1.0000
  C   C47       1.0  0.8507319212194044  0.9044603239154838  0.38932951511761965  1.0000
  C   C48       1.0  0.1492680789665778  0.40446032390663517  0.11067048512735088  1.0000
  N   N1        1.0  0.26274168864387154  0.7782618218583898  0.5560635877393731  1.0000
  N   N2        1.0  0.7372583109979338  0.27826182184954124  0.9439364121357008  1.0000
  N   N3        1.0  0.7372583105708705  0.2217381781593073  0.4439364119754797  1.0000
  N   N4        1.0  0.262741688341573  0.7217381781681559  0.05606358792363988  1.0000
  O   O1        1.0  0.2881307339000363  0.26208086677340964  0.6155412546205341  1.0000
  O   O2        1.0  0.711869265741769  0.7620808667822582  0.8844587452545398  1.0000
  O   O3        1.0  0.7118692654394706  0.7379191332442874  0.3844587454388066  1.0000
  O   O4        1.0  0.2881307347465117  0.2379191332354389  0.11554125480616399  1.0000
  I   I1        1.0  0.24128972351373829  0.5918744918658688  0.47118243332298587  1.0000
  I   I2        1.0  0.7587102765474792  0.09187449185702036  0.028817566577496855  1.0000
  I   I3        1.0  0.7587102758257686  0.4081255081518282  0.5288175667363548  1.0000
  I   I4        1.0  0.24128972394080145  0.9081255081606768  0.9711824334832069  1.0000
