data_image0
_chemical_formula_structural       H144B88C8N16O16S4
_chemical_formula_sum              "H144 B88 C8 N16 O16 S4"
_cell_length_a       26.7796892409453
_cell_length_b       7.213613355222714
_cell_length_c       12.311122886134566
_cell_angle_alpha    90.0
_cell_angle_beta     102.99078683345793
_cell_angle_gamma    90.0

_space_group_name_H-M_alt    "P 1"
_space_group_IT_number       1

loop_
  _space_group_symop_operation_xyz
  'x, y, z'

loop_
  _atom_site_type_symbol
  _atom_site_label
  _atom_site_symmetry_multiplicity
  _atom_site_fract_x
  _atom_site_fract_y
  _atom_site_fract_z
  _atom_site_occupancy
  H   H1        1.0  0.5071591173338827  0.8891323244205093  0.31919237557430724  1.0000
  H   H2        1.0  0.4928408826938327  0.8891323244205093  0.180807624951278  1.0000
  H   H3        1.0  0.007159117362610106  0.3891323240893793  0.31919237526340066  1.0000
  H   H4        1.0  0.9928408825518955  0.3891323240893793  0.18080762443080553  1.0000
  H   H5        1.0  0.49284088277900284  0.11086767485548277  0.68080762485505  1.0000
  H   H6        1.0  0.507159117419053  0.11086767485548277  0.8191923754780793  1.0000
  H   H7        1.0  0.9928408826370656  0.6108676751866127  0.6808076243345775  1.0000
  H   H8        1.0  0.007159117081658284  0.6108676751866127  0.819192375228102  1.0000
  H   H9        1.0  0.4689973240283506  0.0590267649556959  0.25033987175423905  1.0000
  H   H10       1.0  0.5310026758861549  0.0590267649556959  0.24966012793996709  1.0000
  H   H11       1.0  0.9689973239996234  0.5590267652868258  0.25033987206514563  1.0000
  H   H12       1.0  0.031002676028092226  0.5590267652868258  0.24966012846043956  1.0000
  H   H13       1.0  0.531002675971325  0.9409732343202961  0.7496601278437391  1.0000
  H   H14       1.0  0.4689973237473988  0.9409732343202961  0.7503398717189405  1.0000
  H   H15       1.0  0.031002676113262382  0.440973235375434  0.7496601283642116  1.0000
  H   H16       1.0  0.9689973240847934  0.440973235375434  0.7503398719689176  1.0000
  H   H17       1.0  0.15384917940584258  0.08606636084126966  0.30523770981871157  1.0000
  H   H18       1.0  0.8461508208747849  0.08606636084126966  0.19476228981456517  1.0000
  H   H19       1.0  0.6538491793771153  0.5860663611723995  0.30523771012961826  1.0000
  H   H20       1.0  0.34615082053739027  0.5860663611723995  0.19476228956458794  1.0000
  H   H21       1.0  0.8461508205938331  0.9139336384347223  0.6947622897792666  1.0000
  H   H22       1.0  0.15384917912489077  0.9139336384347223  0.805237709783413  1.0000
  H   H23       1.0  0.3461508206225604  0.41393363810359246  0.6947622894683599  1.0000
  H   H24       1.0  0.6538491790961635  0.41393363810359246  0.8052377100943195  1.0000
  H   H25       1.0  0.16517433818619265  0.9001474129880814  0.39229819415628797  1.0000
  H   H26       1.0  0.8348256617283129  0.9001474129880814  0.10770180553791814  1.0000
  H   H27       1.0  0.6651743381574653  0.40014741404321935  0.39229819446719466  1.0000
  H   H28       1.0  0.33482566175704015  0.40014741404321935  0.10770180522701148  1.0000
  H   H29       1.0  0.8348256618134829  0.09985258628791055  0.6077018054416902  1.0000
  H   H30       1.0  0.16517433827136282  0.09985258628791055  0.8922981940600601  1.0000
  H   H31       1.0  0.33482566158929833  0.5998525866190405  0.6077018060230919  1.0000
  H   H32       1.0  0.6651743382426355  0.5998525866190405  0.8922981943709667  1.0000
  H   H33       1.0  0.13514427556180347  0.0887267848278291  0.4259212702698324  1.0000
  H   H34       1.0  0.8648557247188239  0.0887267848278291  0.07407872936344448  1.0000
  H   H35       1.0  0.6351442755330763  0.588726785158959  0.42592127058073903  1.0000
  H   H36       1.0  0.3648557244946393  0.588726785158959  0.0740787299448463  1.0000
  H   H37       1.0  0.8648557244378722  0.9112732144481629  0.5740787293281459  1.0000
  H   H38       1.0  0.13514427528085168  0.9112732144481629  0.9259212702345339  1.0000
  H   H39       1.0  0.3648557245798095  0.4112732155033008  0.5740787298486183  1.0000
  H   H40       1.0  0.6351442752521244  0.4112732155033008  0.9259212705454403  1.0000
  H   H41       1.0  0.10474001807149615  0.9470309474036238  0.3214193691154613  1.0000
  H   H42       1.0  0.8952599819562194  0.9470309474036238  0.17858063141012395  1.0000
  H   H43       1.0  0.6047400182956808  0.44703094707249386  0.3214193685340595  1.0000
  H   H44       1.0  0.3952599816188247  0.44703094707249386  0.17858063116014664  1.0000
  H   H45       1.0  0.8952599816752674  0.052969053258636024  0.6785806313748253  1.0000
  H   H46       1.0  0.10474001815666631  0.052969053258636024  0.8214193690192333  1.0000
  H   H47       1.0  0.3952599817039949  0.5529690535897659  0.6785806310639187  1.0000
  H   H48       1.0  0.604740018014729  0.5529690535897659  0.8214193684987608  1.0000
  H   H49       1.0  0.28908310771583623  0.22091780104158334  0.2724542518465642  1.0000
  H   H50       1.0  0.7109168925647913  0.22091780104158334  0.22754574778671266  1.0000
  H   H51       1.0  0.7890831076871089  0.7209178013727132  0.2724542521574708  1.0000
  H   H52       1.0  0.21091689234060657  0.7209178013727132  0.22754574836811448  1.0000
  H   H53       1.0  0.7109168923970494  0.7790821996206765  0.7275457485827931  1.0000
  H   H54       1.0  0.2890831074348844  0.7790821996206765  0.7724542518112656  1.0000
  H   H55       1.0  0.21091689242577674  0.27908219928954653  0.7275457482718864  1.0000
  H   H56       1.0  0.789083107772279  0.27908219928954653  0.7724542520612427  1.0000
  H   H57       1.0  0.2979569087934192  0.8703417414872194  0.18174721028002125  1.0000
  H   H58       1.0  0.7020430912342964  0.8703417414872194  0.3182527902455641  1.0000
  H   H59       1.0  0.7979569086514818  0.3703417411560894  0.18174720975954878  1.0000
  H   H60       1.0  0.2020430912630237  0.3703417411560894  0.31825278993465744  1.0000
  H   H61       1.0  0.7020430913194665  0.12965825778877266  0.8182527901493359  1.0000
  H   H62       1.0  0.2979569088785893  0.12965825778877266  0.6817472101837933  1.0000
  H   H63       1.0  0.20204309098207185  0.6296582581199025  0.8182527898993588  1.0000
  H   H64       1.0  0.797956908736652  0.6296582581199025  0.6817472096633208  1.0000
  H   H65       1.0  0.2398254718688491  0.9326264090837582  0.3535466805726321  1.0000
  H   H66       1.0  0.7601745280456564  0.9326264090837582  0.14645331912157405  1.0000
  H   H67       1.0  0.7398254718401217  0.43262640875262826  0.3535466808835388  1.0000
  H   H68       1.0  0.2601745281875937  0.43262640875262826  0.14645331964204653  1.0000
  H   H69       1.0  0.7601745282440365  0.06737359157850165  0.6464533198567252  1.0000
  H   H70       1.0  0.23982547195401924  0.06737359157850165  0.8535466804764041  1.0000
  H   H71       1.0  0.2601745282727639  0.5673735905233637  0.6464533195458185  1.0000
  H   H72       1.0  0.739825471925292  0.5673735905233637  0.8535466807873107  1.0000
  H   H73       1.0  0.2883642301101792  0.23883953785138892  0.4968893362951251  1.0000
  H   H74       1.0  0.7116357701704483  0.23883953785138892  0.00311066333815166  1.0000
  H   H75       1.0  0.7883642300814518  0.738839536796251  0.49688933660603185  1.0000
  H   H76       1.0  0.21163576994626362  0.738839536796251  0.0031106639195534773  1.0000
  H   H77       1.0  0.7116357700027065  0.7611604628108709  0.5031106641342321  1.0000
  H   H78       1.0  0.28836422982922744  0.7611604628108709  0.9968893362598266  1.0000
  H   H79       1.0  0.21163577003143377  0.261160462479741  0.5031106638233255  1.0000
  H   H80       1.0  0.7883642298005001  0.261160462479741  0.9968893365707332  1.0000
  H   H81       1.0  0.3778946237387402  0.3672817698333932  0.4141626416992186  1.0000
  H   H82       1.0  0.6221053765418872  0.3672817698333932  0.08583735793405817  1.0000
  H   H83       1.0  0.8778946237100129  0.8672817701645231  0.41416264201012526  1.0000
  H   H84       1.0  0.12210537620449265  0.8672817701645231  0.08583735768408088  1.0000
  H   H85       1.0  0.6221053762609355  0.6327182294425988  0.5858373578987595  1.0000
  H   H86       1.0  0.3778946234577884  0.6327182294425988  0.91416264166392  1.0000
  H   H87       1.0  0.12210537640287278  0.1327182304977367  0.5858373584192319  1.0000
  H   H88       1.0  0.8778946234290611  0.1327182304977367  0.9141626419748267  1.0000
  H   H89       1.0  0.3830669368587545  0.13981971729462903  0.2201183737192753  1.0000
  H   H90       1.0  0.6169330634218732  0.13981971729462903  0.27988162591400156  1.0000
  H   H91       1.0  0.883066936830027  0.6398197176257588  0.22011837403018197  1.0000
  H   H92       1.0  0.11693306319768836  0.6398197176257588  0.2798816264954033  1.0000
  H   H93       1.0  0.6169330631409212  0.860180281981363  0.7798816258787028  1.0000
  H   H94       1.0  0.38306693657780266  0.860180281981363  0.7201183736839766  1.0000
  H   H95       1.0  0.11693306328285852  0.3601802816502331  0.7798816263991752  1.0000
  H   H96       1.0  0.8830669369151972  0.3601802816502331  0.7201183739339541  1.0000
  H   H97       1.0  0.45757260396245414  0.05418459387167034  0.4452646367870571  1.0000
  H   H98       1.0  0.5424273960652614  0.05418459387167034  0.054735363738528185  1.0000
  H   H99       1.0  0.9575726038205169  0.5541845942028003  0.4452646362665846  1.0000
  H   H100      1.0  0.04242739609398866  0.5541845942028003  0.05473536342762155  1.0000
  H   H101      1.0  0.5424273961504315  0.9458154054043216  0.5547353636423002  1.0000
  H   H102      1.0  0.4575726040476243  0.9458154054043216  0.945264636690829  1.0000
  H   H103      1.0  0.042427396179158826  0.4458154050731918  0.5547353633313936  1.0000
  H   H104      1.0  0.957572604018897  0.4458154050731918  0.9452646370017358  1.0000
  H   H105      1.0  0.39688907111846755  0.11832539366446919  0.6207902561740318  1.0000
  H   H106      1.0  0.6031109289663782  0.11832539366446919  0.8792097433277184  1.0000
  H   H107      1.0  0.8968890710897403  0.6183253939955992  0.6207902564849384  1.0000
  H   H108      1.0  0.10311092874219356  0.6183253939955992  0.8792097439091202  1.0000
  H   H109      1.0  0.603110928881208  0.8816746056115228  0.37920974342394637  1.0000
  H   H110      1.0  0.39688907103329746  0.8816746056115228  0.12079025627025973  1.0000
  H   H111      1.0  0.1031109289099354  0.38167460666666075  0.3792097431130398  1.0000
  H   H112      1.0  0.8968890710045702  0.38167460666666075  0.12079025658116638  1.0000
  H   H113      1.0  0.3073895541847736  0.8362039165341106  0.5814757227809039  1.0000
  H   H114      1.0  0.6926104460132823  0.8362039165341106  0.9185242775522254  1.0000
  H   H115      1.0  0.8073895540428362  0.33620391620298073  0.5814757222604313  1.0000
  H   H116      1.0  0.19261044567588761  0.33620391620298073  0.9185242773022482  1.0000
  H   H117      1.0  0.692610445928112  0.16379608274188134  0.4185242776484535  1.0000
  H   H118      1.0  0.30738955398639345  0.16379608274188134  0.08147572204575267  1.0000
  H   H119      1.0  0.1926104459568394  0.6637960830730113  0.4185242773375469  1.0000
  H   H120      1.0  0.8073895539576661  0.6637960830730113  0.08147572235665929  1.0000
  H   H121      1.0  0.3143475820623653  0.6024098708941458  0.38091388358640677  1.0000
  H   H122      1.0  0.6856524182182622  0.6024098708941458  0.11908611604687006  1.0000
  H   H123      1.0  0.814347582033638  0.10240987056301577  0.3809138838973134  1.0000
  H   H124      1.0  0.18565241788086756  0.10240987056301577  0.11908611579689277  1.0000
  H   H125      1.0  0.6856524179373105  0.3975901297681141  0.6190861160115714  1.0000
  H   H126      1.0  0.3143475817814134  0.3975901297681141  0.880913883551108  1.0000
  H   H127      1.0  0.18565241796603774  0.897590130099244  0.6190861157006647  1.0000
  H   H128      1.0  0.8143475821188081  0.897590130099244  0.8809138838010855  1.0000
  H   H129      1.0  0.40810558025290966  0.7375543043415219  0.2973701131360276  1.0000
  H   H130      1.0  0.5918944197748058  0.7375543043415219  0.20262988738955762  1.0000
  H   H131      1.0  0.9081055804770943  0.23755430401039193  0.29737011255462587  1.0000
  H   H132      1.0  0.09189441980353316  0.23755430401039193  0.20262988707865096  1.0000
  H   H133      1.0  0.591894419493854  0.2624456949344702  0.7026298873542589  1.0000
  H   H134      1.0  0.40810558033807975  0.2624456949344702  0.7973701130397995  1.0000
  H   H135      1.0  0.09189441952258136  0.7624456952656  0.7026298870433524  1.0000
  H   H136      1.0  0.9081055801961425  0.7624456952656  0.7973701125193271  1.0000
  H   H137      1.0  0.4145893857323567  0.7224639252707906  0.5428343676857119  1.0000
  H   H138      1.0  0.5854106143524891  0.7224639252707906  0.9571656318160382  1.0000
  H   H139      1.0  0.9145893857036295  0.22246392493966072  0.5428343679966185  1.0000
  H   H140      1.0  0.08541061449442641  0.22246392493966072  0.9571656323365106  1.0000
  H   H141      1.0  0.5854106142673189  0.2775360753914692  0.45716563191226633  1.0000
  H   H142      1.0  0.4145893856471866  0.2775360753914692  0.042834367781939844  1.0000
  H   H143      1.0  0.08541061440925628  0.7775360757225991  0.4571656324327388  1.0000
  H   H144      1.0  0.9145893856184591  0.7775360757225991  0.0428343680928465  1.0000
  B   B1        1.0  0.32036195849185917  0.9081733699044002  0.27403226151365623  1.0000
  B   B2        1.0  0.6796380414226464  0.9081733699044002  0.22596773818054997  1.0000
  B   B3        1.0  0.8203619584631319  0.40817337095953826  0.27403226182456286  1.0000
  B   B4        1.0  0.1796380415645836  0.40817337095953826  0.22596773870102244  1.0000
  B   B5        1.0  0.6796380415078165  0.09182662937159168  0.7259677380843218  1.0000
  B   B6        1.0  0.32036195857702937  0.09182662937159168  0.7740322614174282  1.0000
  B   B7        1.0  0.17963804164975375  0.5918266297027215  0.7259677386047945  1.0000
  B   B8        1.0  0.8203619585483021  0.5918266297027215  0.7740322617283348  1.0000
  B   B9        1.0  0.28529465041253105  0.9445935447963341  0.37759389983995423  1.0000
  B   B10       1.0  0.7147053495019745  0.9445935447963341  0.12240609985425192  1.0000
  B   B11       1.0  0.7852946503838039  0.44459354446520416  0.37759390015086086  1.0000
  B   B12       1.0  0.21470534953070175  0.44459354446520416  0.1224060995433453  1.0000
  B   B13       1.0  0.7147053495871446  0.05540645447965795  0.622406099758024  1.0000
  B   B14       1.0  0.28529465049770125  0.05540645447965795  0.8775938997437261  1.0000
  B   B15       1.0  0.21470534924974996  0.5554064548107879  0.6224060995080466  1.0000
  B   B16       1.0  0.785294650468974  0.5554064548107879  0.8775939000546328  1.0000
  B   B17       1.0  0.31446297066708895  0.1284001310285646  0.4640583752680838  1.0000
  B   B18       1.0  0.6855370292474166  0.1284001310285646  0.03594162442612238  1.0000
  B   B19       1.0  0.8144629706383616  0.6284001299734268  0.4640583755789904  1.0000
  B   B20       1.0  0.18553702938935387  0.6284001299734268  0.03594162494659485  1.0000
  B   B21       1.0  0.6855370293325868  0.8715998696336952  0.5359416243298943  1.0000
  B   B22       1.0  0.3144629707522591  0.8715998696336952  0.9640583751718559  1.0000
  B   B23       1.0  0.18553702910840209  0.37159986930256533  0.5359416249112963  1.0000
  B   B24       1.0  0.8144629707235318  0.37159986930256533  0.9640583754827624  1.0000
  B   B25       1.0  0.36787071033954033  0.2058685123350571  0.4138090387151712  1.0000
  B   B26       1.0  0.6321292895749652  0.2058685123350571  0.08619096097903498  1.0000
  B   B27       1.0  0.8678707103108129  0.7058685126661871  0.41380903902607785  1.0000
  B   B28       1.0  0.13212928960369255  0.7058685126661871  0.08619096066812834  1.0000
  B   B29       1.0  0.6321292896601354  0.7941314869409348  0.586190960882807  1.0000
  B   B30       1.0  0.3678707104247104  0.7941314869409348  0.913809038618943  1.0000
  B   B31       1.0  0.1321292896888627  0.294131486609805  0.5861909605719003  1.0000
  B   B32       1.0  0.8678707103959831  0.294131486609805  0.9138090389298498  1.0000
  B   B33       1.0  0.37123942925961173  0.06976360877945373  0.2971271260055292  1.0000
  B   B34       1.0  0.6287605707681038  0.06976360877945373  0.2028728745200561  1.0000
  B   B35       1.0  0.8712394294837964  0.5697636091105837  0.2971271254241273  1.0000
  B   B36       1.0  0.1287605707968311  0.5697636091105837  0.20287287420914948  1.0000
  B   B37       1.0  0.628760570487152  0.930236391882806  0.7028728744847574  1.0000
  B   B38       1.0  0.3712394293447819  0.930236391882806  0.7971271259093012  1.0000
  B   B39       1.0  0.1287605705158793  0.43023639155167615  0.7028728741738509  1.0000
  B   B40       1.0  0.8712394292028445  0.43023639155167615  0.7971271253888287  1.0000
  B   B41       1.0  0.41254210292886223  0.02272465156194096  0.4274541495830163  1.0000
  B   B42       1.0  0.5874578969856433  0.02272465156194096  0.0725458501111898  1.0000
  B   B43       1.0  0.912542102900135  0.5227246518930708  0.42745414989392294  1.0000
  B   B44       1.0  0.0874578970143706  0.5227246518930708  0.07254584980028317  1.0000
  B   B45       1.0  0.5874578970708134  0.9772753491003189  0.5725458500149618  1.0000
  B   B46       1.0  0.4125421026479104  0.9772753491003189  0.9274541495477178  1.0000
  B   B47       1.0  0.08745789721275073  0.4772753487691889  0.5725458505354343  1.0000
  B   B48       1.0  0.9125421029853051  0.4772753487691889  0.9274541497976949  1.0000
  B   B49       1.0  0.37717351152629863  0.0586119672873632  0.5310715876963621  1.0000
  B   B50       1.0  0.6228264881924251  0.0586119672873632  0.9689284118663174  1.0000
  B   B51       1.0  0.8771735118636934  0.5586119662322253  0.5310715879463395  1.0000
  B   B52       1.0  0.12282648833436248  0.5586119662322253  0.9689284123867898  1.0000
  B   B53       1.0  0.622826488107255  0.9413880333748966  0.4689284119625453  1.0000
  B   B54       1.0  0.3771735118072505  0.9413880333748966  0.031071587731660785  1.0000
  B   B55       1.0  0.12282648813598233  0.44138803304376667  0.46892841165163873  1.0000
  B   B56       1.0  0.8771735117785232  0.44138803304376667  0.031071588042567395  1.0000
  B   B57       1.0  0.3257528724701893  0.895988694115482  0.5085128208091898  1.0000
  B   B58       1.0  0.6742471277278665  0.895988694115482  0.9914871795239395  1.0000
  B   B59       1.0  0.825752872328252  0.39598869517061996  0.5085128202887172  1.0000
  B   B60       1.0  0.17424712775659384  0.39598869517061996  0.9914871792130329  1.0000
  B   B61       1.0  0.6742471276426963  0.10401130516050999  0.4914871796201675  1.0000
  B   B62       1.0  0.32575287238501915  0.10401130516050999  0.008512820905417785  1.0000
  B   B63       1.0  0.1742471276714237  0.60401130549164  0.4914871793092609  1.0000
  B   B64       1.0  0.8257528722430818  0.60401130549164  0.008512820384945307  1.0000
  B   B65       1.0  0.3293915193469531  0.7591886146815694  0.3907776959396451  1.0000
  B   B66       1.0  0.6706084806807624  0.7591886146815694  0.10922230458594008  1.0000
  B   B67       1.0  0.8293915192050159  0.25918861435043955  0.3907776954191727  1.0000
  B   B68       1.0  0.1706084807094897  0.25918861435043955  0.10922230427503347  1.0000
  B   B69       1.0  0.6706084807659325  0.24081138459442258  0.609222304489712  1.0000
  B   B70       1.0  0.3293915194321233  0.24081138459442258  0.8907776958434171  1.0000
  B   B71       1.0  0.17060848079465987  0.7408113849255524  0.6092223041788054  1.0000
  B   B72       1.0  0.8293915194033961  0.7408113849255524  0.8907776961543239  1.0000
  B   B73       1.0  0.38305952156595097  0.83825272054844  0.3408908736455982  1.0000
  B   B74       1.0  0.6169404783485545  0.83825272054844  0.15910912604860789  1.0000
  B   B75       1.0  0.8830595215372237  0.33825272021731007  0.3408908739565049  1.0000
  B   B76       1.0  0.11694047837728185  0.33825272021731007  0.15910912573770122  1.0000
  B   B77       1.0  0.6169404784337247  0.161747278727552  0.6591091259523799  1.0000
  B   B78       1.0  0.3830595213982092  0.161747278727552  0.8408908744416789  1.0000
  B   B79       1.0  0.11694047846245198  0.6617472790586819  0.6591091256414732  1.0000
  B   B80       1.0  0.8830595216223938  0.6617472790586819  0.8408908738602768  1.0000
  B   B81       1.0  0.386585781310683  0.8304711169004764  0.48549846595142104  1.0000
  B   B82       1.0  0.6134142186038225  0.8304711169004764  0.014501533742785077  1.0000
  B   B83       1.0  0.8865857812819556  0.3304711165693465  0.4854984662623277  1.0000
  B   B84       1.0  0.11341421874575983  0.3304711165693465  0.014501534263257551  1.0000
  B   B85       1.0  0.6134142186889926  0.16952888376178343  0.514501533646557  1.0000
  B   B86       1.0  0.38658578139585315  0.16952888376178343  0.9854984658551931  1.0000
  B   B87       1.0  0.11341421846480801  0.6695288840929133  0.514501534227959  1.0000
  B   B88       1.0  0.886585781367126  0.6695288840929133  0.9854984661660998  1.0000
  C   C1        1.0  0.3140647559629235  0.12313731638484465  0.3261231920641596  1.0000
  C   C2        1.0  0.685935244064792  0.12313731638484465  0.1738768084614257  1.0000
  C   C3        1.0  0.8140647558209861  0.6231373167159745  0.32612319154368713  1.0000
  C   C4        1.0  0.18593524409351933  0.6231373167159745  0.17387680815051906  1.0000
  C   C5        1.0  0.6859352441499621  0.8768626828911473  0.6738768083651978  1.0000
  C   C6        1.0  0.31406475604809364  0.8768626828911473  0.8261231919679316  1.0000
  C   C7        1.0  0.18593524417868948  0.3768626825600174  0.6738768080542911  1.0000
  C   C8        1.0  0.8140647560193663  0.3768626825600174  0.8261231922788382  1.0000
  N   N1        1.0  0.0  0.0  0.0  1.0000
  N   N2        1.0  8.517015716389412e-11  0.0  0.49999999990377203  1.0000
  N   N3        1.0  0.49999999997127265  0.5000000003311299  3.109066270380919e-10  1.0000
  N   N4        1.0  0.5000000000564429  0.5000000003311299  0.5000000002146787  1.0000
  N   N5        1.0  0.5000000001969187  0.9737699671572053  0.25000000023232793  1.0000
  N   N6        1.0  0.9999999998595241  0.4737699668260755  0.24999999998235067  1.0000
  N   N7        1.0  0.4999999999159669  0.026230033505054446  0.7500000001970294  1.0000
  N   N8        1.0  0.9999999999446942  0.5262300338361844  0.7499999998861226  1.0000
  N   N9        1.0  0.14006751342840157  0.005828743228878236  0.36097078266318017  1.0000
  N   N10       1.0  0.8599324868522259  0.005828743228878236  0.1390292169700966  1.0000
  N   N11       1.0  0.6400675133996743  0.5058287421737403  0.36097078297408675  1.0000
  N   N12       1.0  0.3599324865148313  0.5058287421737403  0.1390292167201193  1.0000
  N   N13       1.0  0.8599324865712741  0.9941712574333816  0.639029216934798  1.0000
  N   N14       1.0  0.14006751314744978  0.9941712574333816  0.8609707826278816  1.0000
  N   N15       1.0  0.35993248671321143  0.4941712571022517  0.6390292174552704  1.0000
  N   N16       1.0  0.6400675131187223  0.4941712571022517  0.8609707829387883  1.0000
  O   O1        1.0  0.004693150784489738  0.0881852795089764  0.3528144378017094  1.0000
  O   O2        1.0  0.9953068492432258  0.0881852795089764  0.14718556272387584  1.0000
  O   O3        1.0  0.5046931506425525  0.5881852798401063  0.35281443728123696  1.0000
  O   O4        1.0  0.49530684927195306  0.5881852798401063  0.1471855624129692  1.0000
  O   O5        1.0  0.9953068493283959  0.9118147211532834  0.6471855626276479  1.0000
  O   O6        1.0  0.004693150503537916  0.9118147211532834  0.8528144377664107  1.0000
  O   O7        1.0  0.4953068493571232  0.4118147208221535  0.6471855623167412  1.0000
  O   O8        1.0  0.5046931507277226  0.4118147208221535  0.8528144371850089  1.0000
  O   O9        1.0  0.9535878801165627  0.8469531896350677  0.2372013190078651  1.0000
  O   O10       1.0  0.04641212016406478  0.8469531896350677  0.2627986806254117  1.0000
  O   O11       1.0  0.45358787977916804  0.34695318930393776  0.23720131875788783  1.0000
  O   O12       1.0  0.5464121201353375  0.34695318930393776  0.26279868093631836  1.0000
  O   O13       1.0  0.04641211999632294  0.15304681102719211  0.7627986814214921  1.0000
  O   O14       1.0  0.953587879835611  0.15304681102719211  0.7372013189725666  1.0000
  O   O15       1.0  0.5464121198543856  0.653046811358322  0.7627986809010197  1.0000
  O   O16       1.0  0.45358787986433824  0.653046811358322  0.7372013186616598  1.0000
  S   S1        1.0  0.9999999998595241  0.9595004041890884  0.24999999998235067  1.0000
  S   S2        1.0  0.5000000001969187  0.4595004038579585  0.25000000023232793  1.0000
  S   S3        1.0  0.9999999999446942  0.04049959647317141  0.7499999998861226  1.0000
  S   S4        1.0  0.4999999999159669  0.5404995968043014  0.7500000001970294  1.0000
