data_image0
_chemical_formula_structural       H112C88N16O24
_chemical_formula_sum              "H112 C88 N16 O24"
_cell_length_a       13.618117424753972
_cell_length_b       11.396727514685987
_cell_length_c       13.989864330414466
_cell_angle_alpha    90.0
_cell_angle_beta     96.62080670213328
_cell_angle_gamma    90.0

_space_group_name_H-M_alt    "P 1"
_space_group_IT_number       1

loop_
  _space_group_symop_operation_xyz
  'x, y, z'

loop_
  _atom_site_type_symbol
  _atom_site_label
  _atom_site_symmetry_multiplicity
  _atom_site_fract_x
  _atom_site_fract_y
  _atom_site_fract_z
  _atom_site_occupancy
  H   H1        1.0  0.6346909388360334  0.49660481683947155  0.8653753792801293  1.0000
  H   H2        1.0  0.8653090618372092  0.49660481683947155  0.6346246210030648  1.0000
  H   H3        1.0  0.36530906109370603  0.5033951836268039  0.1346246206717224  1.0000
  H   H4        1.0  0.13469093882631403  0.5033951836268039  0.3653753789444089  1.0000
  H   H5        1.0  0.7081468937029337  0.8641824302027602  0.08071981653622357  1.0000
  H   H6        1.0  0.7918531064406928  0.8641824302027602  0.4192801835089111  1.0000
  H   H7        1.0  0.29185310622680577  0.13581756938607026  0.919280183415628  1.0000
  H   H8        1.0  0.20814689348904658  0.13581756938607026  0.5807198164429406  1.0000
  H   H9        1.0  0.8439708793687228  0.9607871089213894  0.12961873601004106  1.0000
  H   H10       1.0  0.6560291207749035  0.9607871089213894  0.37038126403509364  1.0000
  H   H11       1.0  0.15602912056101656  0.039212891544886025  0.8703812639418107  1.0000
  H   H12       1.0  0.3439708791548359  0.039212891544886025  0.6296187359167582  1.0000
  H   H13       1.0  0.9589710539356239  0.8820066520891073  0.14688530144788162  1.0000
  H   H14       1.0  0.5410289454742189  0.8820066520891073  0.3531146986016309  1.0000
  H   H15       1.0  0.04102894599411549  0.11799334837716803  0.8531146985039699  1.0000
  H   H16       1.0  0.4589710544555206  0.11799334837716803  0.6468853013502207  1.0000
  H   H17       1.0  0.8845572934143311  0.8952935565803194  0.24289333729444523  1.0000
  H   H18       1.0  0.6154427067292954  0.8952935565803194  0.25710666275068944  1.0000
  H   H19       1.0  0.11544270651540836  0.10470644300851122  0.7571066626574066  1.0000
  H   H20       1.0  0.3845572932004441  0.10470644300851122  0.7428933372011622  1.0000
  H   H21       1.0  0.7033487947738009  0.609015532840985  0.12598282566180266  1.0000
  H   H22       1.0  0.7966512053698256  0.609015532840985  0.374017174383332  1.0000
  H   H23       1.0  0.29665120515593857  0.3909844667478456  0.874017174290049  1.0000
  H   H24       1.0  0.2033487945599138  0.3909844667478456  0.6259828255685196  1.0000
  H   H25       1.0  0.5632255234243471  0.7223840123746995  0.17458739973463325  1.0000
  H   H26       1.0  0.9367744767192794  0.7223840123746995  0.3254126003105014  1.0000
  H   H27       1.0  0.43677447659509167  0.277615987214131  0.8254126009368074  1.0000
  H   H28       1.0  0.06322552394424376  0.277615987214131  0.6745873996369725  1.0000
  H   H29       1.0  0.5175719352368912  0.6325311323544989  0.0749989386480872  1.0000
  H   H30       1.0  0.9824280649067354  0.6325311323544989  0.4250010613970474  1.0000
  H   H31       1.0  0.4824280646928483  0.3674688681117766  0.9250010613037646  1.0000
  H   H32       1.0  0.017571935756787813  0.3674688681117766  0.5749989385504264  1.0000
  H   H33       1.0  0.5373831230012366  0.7842684611422222  0.0571883117466918  1.0000
  H   H34       1.0  0.9626168771423899  0.7842684611422222  0.4428116882984428  1.0000
  H   H35       1.0  0.4626168769285029  0.21573153932405328  0.9428116882051599  1.0000
  H   H36       1.0  0.03738312361083253  0.21573153932405328  0.5571883123686199  1.0000
  H   H37       1.0  0.6339712126979714  0.6350183884517839  0.7382579762492515  1.0000
  H   H38       1.0  0.8660287872414874  0.6350183884517839  0.7617420240383206  1.0000
  H   H39       1.0  0.366028787231768  0.3649816120144914  0.2617420237026002  1.0000
  H   H40       1.0  0.13397121268825207  0.3649816120144914  0.23825797591353112  1.0000
  H   H41       1.0  0.6241170719927188  0.571344902438813  0.5648930638953774  1.0000
  H   H42       1.0  0.8758829279467399  0.571344902438813  0.9351069363921946  1.0000
  H   H43       1.0  0.3758829279370206  0.4286550980274625  0.4351069360564743  1.0000
  H   H44       1.0  0.12411707198299948  0.4286550980274625  0.0648930635596571  1.0000
  H   H45       1.0  0.6239815132336437  0.2117998062943517  0.6651164294881942  1.0000
  H   H46       1.0  0.8760184867058152  0.2117998062943517  0.8348835707993778  1.0000
  H   H47       1.0  0.3760184866960958  0.7882001932944789  0.3348835704636576  1.0000
  H   H48       1.0  0.12398151322392431  0.7882001932944789  0.1651164291524738  1.0000
  H   H49       1.0  0.6313319159026614  0.29290676869288795  0.8359312269445763  1.0000
  H   H50       1.0  0.8686680839470983  0.29290676869288795  0.6640687726234067  1.0000
  H   H51       1.0  0.3686680840270782  0.7070932317733876  0.1640687730072753  1.0000
  H   H52       1.0  0.13133191598264118  0.7070932317733876  0.33593122732844505  1.0000
  H   H53       1.0  0.6246904824288436  0.24105328538037737  0.5031925954379214  1.0000
  H   H54       1.0  0.8753095175106153  0.24105328538037737  0.9968074048496506  1.0000
  H   H55       1.0  0.3753095175008958  0.7589467150858981  0.4968074045139303  1.0000
  H   H56       1.0  0.12469048250882353  0.7589467150858981  0.00319259582179002  1.0000
  H   H57       1.0  0.6173987641071486  0.49637180960150984  0.4243279843795502  1.0000
  H   H58       1.0  0.882601236036478  0.49637180960150984  0.0756720156655844  1.0000
  H   H59       1.0  0.38260123582259087  0.5036281908647656  0.5756720155723015  1.0000
  H   H60       1.0  0.11739876389326152  0.5036281908647656  0.9243279842862674  1.0000
  H   H61       1.0  0.6039109962964917  0.520041079543464  0.2580338649603939  1.0000
  H   H62       1.0  0.8960890038471349  0.520041079543464  0.2419661350847408  1.0000
  H   H63       1.0  0.39608900363324784  0.47995892004536655  0.7419661349914578  1.0000
  H   H64       1.0  0.10391099608260457  0.47995892004536655  0.7580338648671108  1.0000
  H   H65       1.0  0.606167023942153  0.4333672577181103  0.09037340542463436  1.0000
  H   H66       1.0  0.8938329762014734  0.4333672577181103  0.40962659462050033  1.0000
  H   H67       1.0  0.3938329759875864  0.5666327427481652  0.9096265945272173  1.0000
  H   H68       1.0  0.106167023728266  0.5666327427481652  0.5903734053313513  1.0000
  H   H69       1.0  0.6406849001634457  0.09705563097605363  0.1987770261028731  1.0000
  H   H70       1.0  0.8593150999801806  0.09705563097605363  0.30122297394226155  1.0000
  H   H71       1.0  0.35931509985599297  0.9029443686127769  0.8012229745685676  1.0000
  H   H72       1.0  0.14068489994955874  0.9029443686127769  0.6987770260095901  1.0000
  H   H73       1.0  0.6398854775376953  0.165810983685001  0.3697410688268905  1.0000
  H   H74       1.0  0.8601145226059311  0.165810983685001  0.13025893121824417  1.0000
  H   H75       1.0  0.36011452248174336  0.8341890159038295  0.6302589318445501  1.0000
  H   H76       1.0  0.1398854773238083  0.8341890159038295  0.8697410687336075  1.0000
  H   H77       1.0  0.6303288193608793  0.22878494257584622  0.06866605208160986  1.0000
  H   H78       1.0  0.8696711800489635  0.22878494257584622  0.43133394796790264  1.0000
  H   H79       1.0  0.3696711805688603  0.7712150578904291  0.9313339478702418  1.0000
  H   H80       1.0  0.13032881988077583  0.7712150578904291  0.5686660519839489  1.0000
  H   H81       1.0  0.7315443401342822  0.8424231085307765  0.8993156875708349  1.0000
  H   H82       1.0  0.7684556597154774  0.8424231085307765  0.6006843119971482  1.0000
  H   H83       1.0  0.26845565979545727  0.15757689193549887  0.10068431238101683  1.0000
  H   H84       1.0  0.2315443402142621  0.15757689193549887  0.3993156879547035  1.0000
  H   H85       1.0  0.8858756384203804  0.7740561278342597  0.9504898464050472  1.0000
  H   H86       1.0  0.6141243622528622  0.7740561278342597  0.5495101538781471  1.0000
  H   H87       1.0  0.11412436224314283  0.2259438717545709  0.049510153542426716  1.0000
  H   H88       1.0  0.38587563841066097  0.2259438717545709  0.4504898460693268  1.0000
  H   H89       1.0  0.9854378366392627  0.8782108449204044  0.9736344615399557  1.0000
  H   H90       1.0  0.5145621633001962  0.8782108449204044  0.5263655387476164  1.0000
  H   H91       1.0  0.01456216329047686  0.12178915554587105  0.02636553841189602  1.0000
  H   H92       1.0  0.4854378366295432  0.12178915554587105  0.47363446120423536  1.0000
  H   H93       1.0  0.945748115276699  0.8304629199745132  0.8541900759439089  1.0000
  H   H94       1.0  0.5542518845730605  0.8304629199745132  0.6458099236240742  1.0000
  H   H95       1.0  0.054251884653040365  0.16953708049176228  0.14580992400794274  1.0000
  H   H96       1.0  0.445748115356679  0.16953708049176228  0.35419007632777755  1.0000
  H   H97       1.0  0.70285086158249  0.08913693414981944  0.8352781641963247  1.0000
  H   H98       1.0  0.7971491382672695  0.08913693414981944  0.6647218353716584  1.0000
  H   H99       1.0  0.29714913834724954  0.910863066316456  0.1647218357555271  1.0000
  H   H100      1.0  0.20285086166246988  0.910863066316456  0.3352781645801932  1.0000
  H   H101      1.0  0.580492686833241  0.9378213479463441  0.7709731696409566  1.0000
  H   H102      1.0  0.9195073137503023  0.9378213479463441  0.7290268299226486  1.0000
  H   H103      1.0  0.41950731309649847  0.062178652519931286  0.22902683031089502  1.0000
  H   H104      1.0  0.08049268691322088  0.062178652519931286  0.2709731700248253  1.0000
  H   H105      1.0  0.5230542041179636  0.04068187638973965  0.8423562458806891  1.0000
  H   H106      1.0  0.9769457965552791  0.04068187638973965  0.6576437544025051  1.0000
  H   H107      1.0  0.4769457965455597  0.9593181231990909  0.1576437540667847  1.0000
  H   H108      1.0  0.023054203464159616  0.9593181231990909  0.34235624626893557  1.0000
  H   H109      1.0  0.5577858643123789  0.8999302007338192  0.8901454536158551  1.0000
  H   H110      1.0  0.9422141363608637  0.8999302007338192  0.6098545466673391  1.0000
  H   H111      1.0  0.44221413635114426  0.10006979885501134  0.10985454633161876  1.0000
  H   H112      1.0  0.057785863658575035  0.10006979885501134  0.39014545400410156  1.0000
  C   C1        1.0  0.8827260680975441  0.8851262133802049  0.16455622610767626  1.0000
  C   C2        1.0  0.6172739313122986  0.8851262133802049  0.33544377394183633  1.0000
  C   C3        1.0  0.11727393183219527  0.11487378620862569  0.8354437738441755  1.0000
  C   C4        1.0  0.3827260686174409  0.11487378620862569  0.6645562260100154  1.0000
  C   C5        1.0  0.830343783553822  0.7711949345699669  0.13694768173204364  1.0000
  C   C6        1.0  0.6696562158560208  0.7711949345699669  0.3630523183174688  1.0000
  C   C7        1.0  0.16965621637591743  0.22880506589630856  0.8630523182198081  1.0000
  C   C8        1.0  0.3303437840737187  0.22880506589630856  0.6369476816343829  1.0000
  C   C9        1.0  0.6723338241913663  0.6798499279741254  0.07834511522679431  1.0000
  C   C10       1.0  0.8276661752184765  0.6798499279741254  0.4216548848227182  1.0000
  C   C11       1.0  0.32766617573837314  0.32015007161470527  0.9216548847250574  1.0000
  C   C12       1.0  0.17233382471126302  0.32015007161470527  0.5783451151291336  1.0000
  C   C13       1.0  0.6703400438647911  0.6334141042415631  0.9748176075283103  1.0000
  C   C14       1.0  0.8296599560746677  0.6334141042415631  0.5251823927592618  1.0000
  C   C15       1.0  0.3296599560649484  0.36658589534726743  0.025182392423541502  1.0000
  C   C16       1.0  0.1703400438550717  0.36658589534726743  0.47481760719258986  1.0000
  C   C17       1.0  0.5662501851159385  0.7066601688618069  0.09761634780990928  1.0000
  C   C18       1.0  0.9337498150276881  0.7066601688618069  0.40238365223522543  1.0000
  C   C19       1.0  0.4337498148138009  0.2933398316044685  0.9023836521419424  1.0000
  C   C20       1.0  0.06625018490205144  0.2933398316044685  0.5976163477166263  1.0000
  C   C21       1.0  0.6286196681894648  0.5433951853301491  0.7160535015281737  1.0000
  C   C22       1.0  0.8713803316602947  0.5433951853301491  0.7839464980398093  1.0000
  C   C23       1.0  0.37138033174027457  0.4566048151361264  0.28394649842367803  1.0000
  C   C24       1.0  0.1286196682694448  0.4566048151361264  0.2160535019120423  1.0000
  C   C25       1.0  0.6240977774292322  0.5062554389025393  0.6217138606213676  1.0000
  C   C26       1.0  0.8759022225102265  0.5062554389025393  0.8782861396662044  1.0000
  C   C27       1.0  0.3759022225005072  0.4937445606862912  0.3782861393304841  1.0000
  C   C28       1.0  0.12409777750921216  0.4937445606862912  0.12171386100523618  1.0000
  C   C29       1.0  0.6226572155153749  0.3850007753845026  0.6014631625205143  1.0000
  C   C30       1.0  0.8773427850681684  0.3850007753845026  0.8985368370430908  1.0000
  C   C31       1.0  0.37734278514814823  0.614999224204328  0.3985368374269595  1.0000
  C   C32       1.0  0.12265721486157107  0.614999224204328  0.10146316290876081  1.0000
  C   C33       1.0  0.6242147751440749  0.30599035429303983  0.6791238951822918  1.0000
  C   C34       1.0  0.8757852247056847  0.30599035429303983  0.8208761043856913  1.0000
  C   C35       1.0  0.3757852247856646  0.6940096461732356  0.32087610476955986  1.0000
  C   C36       1.0  0.12421477522405475  0.6940096461732356  0.17912389556616046  1.0000
  C   C37       1.0  0.6282305354028292  0.34869705754384667  0.7720756028884922  1.0000
  C   C38       1.0  0.8717694644469304  0.34869705754384667  0.7279243966794908  1.0000
  C   C39       1.0  0.3717694645269103  0.6513029429224287  0.2279243970633595  1.0000
  C   C40       1.0  0.1282305354828091  0.6513029429224287  0.2720756032723608  1.0000
  C   C41       1.0  0.6221482289340572  0.3368120660122463  0.5051402922817667  1.0000
  C   C42       1.0  0.8778517710054017  0.3368120660122463  0.9948597080058053  1.0000
  C   C43       1.0  0.3778517709956824  0.6631879335765842  0.4948597076700849  1.0000
  C   C44       1.0  0.12214822892433774  0.6631879335765842  0.00514029194604644  1.0000
  C   C45       1.0  0.619561649513757  0.4004792826816792  0.4232045610534094  1.0000
  C   C46       1.0  0.8804383506298694  0.4004792826816792  0.07679543899172525  1.0000
  C   C47       1.0  0.3804383504159824  0.5995207177845963  0.5767954388984422  1.0000
  C   C48       1.0  0.11956165003365374  0.5995207177845963  0.9232045609557485  1.0000
  C   C49       1.0  0.6195061647640688  0.3499958716096323  0.32771110153083066  1.0000
  C   C50       1.0  0.8804938353795577  0.3499958716096323  0.172288898514304  1.0000
  C   C51       1.0  0.3804938351656706  0.6500041279791983  0.672288898421021  1.0000
  C   C52       1.0  0.11950616455018173  0.6500041279791983  0.8277111014375477  1.0000
  C   C53       1.0  0.6099231122329911  0.4256327988669697  0.2471946103307968  1.0000
  C   C54       1.0  0.8900768871768517  0.4256327988669697  0.25280538971871575  1.0000
  C   C55       1.0  0.39007688769674836  0.5743672015993058  0.7528053896210549  1.0000
  C   C56       1.0  0.10992311275288773  0.5743672015993058  0.7471946102331359  1.0000
  C   C57       1.0  0.6108748317105822  0.3798204514780196  0.155620864434297  1.0000
  C   C58       1.0  0.8891251684330445  0.3798204514780196  0.34437913561083766  1.0000
  C   C59       1.0  0.3891251689529411  0.6201795481108109  0.8443791355131769  1.0000
  C   C60       1.0  0.11087483149669507  0.6201795481108109  0.6556208643410141  1.0000
  C   C61       1.0  0.6303389536671945  0.18854295298637797  0.21789382820566117  1.0000
  C   C62       1.0  0.869661046476432  0.18854295298637797  0.28210617183947345  1.0000
  C   C63       1.0  0.36966104626254487  0.8114570474798974  0.7821061717461906  1.0000
  C   C64       1.0  0.1303389541870913  0.8114570474798974  0.7178938281080004  1.0000
  C   C65       1.0  0.6296616271503302  0.22868190773549518  0.3108744522695649  1.0000
  C   C66       1.0  0.8703383722595125  0.22868190773549518  0.18912554777994764  1.0000
  C   C67       1.0  0.3703383727794092  0.7713180918533353  0.6891255476822868  1.0000
  C   C68       1.0  0.12966162767022696  0.7713180918533353  0.810874452171904  1.0000
  C   C69       1.0  0.9208759472721642  0.8523780012711534  0.9240232454857468  1.0000
  C   C70       1.0  0.5791240526672946  0.8523780012711534  0.5759767548018252  1.0000
  C   C71       1.0  0.07912405265757531  0.14762199919512206  0.0759767544661049  1.0000
  C   C72       1.0  0.42087594726244476  0.14762199919512206  0.42402324515002643  1.0000
  C   C73       1.0  0.8504594676980671  0.9549571809956422  0.9112806100426969  1.0000
  C   C74       1.0  0.6495405322413916  0.9549571809956422  0.5887193902448751  1.0000
  C   C75       1.0  0.1495405322316722  0.04504281859318842  0.0887193899091548  1.0000
  C   C76       1.0  0.3504594676883479  0.04504281859318842  0.41128060970697655  1.0000
  C   C77       1.0  0.6801790030109491  0.020547142124635775  0.8834867423832148  1.0000
  C   C78       1.0  0.8198209969285096  0.020547142124635775  0.6165132579043573  1.0000
  C   C79       1.0  0.31982099700848965  0.9794528574641949  0.11651325828822581  1.0000
  C   C80       1.0  0.1801790030012297  0.9794528574641949  0.3834867420474945  1.0000
  C   C81       1.0  0.6706055384110919  0.07950290456908982  0.980998195438571  1.0000
  C   C82       1.0  0.8293944614386675  0.07950290456908982  0.519001804129412  1.0000
  C   C83       1.0  0.3293944615186475  0.9204970958971855  0.019001804513280613  1.0000
  C   C84       1.0  0.17060553849107193  0.9204970958971855  0.4809981958224397  1.0000
  C   C85       1.0  0.5791389052013042  0.9714488958109524  0.8441857562431215  1.0000
  C   C86       1.0  0.9208610947381547  0.9714488958109524  0.6558142440444504  1.0000
  C   C87       1.0  0.4208610947284353  0.02855110465532311  0.1558142437087301  1.0000
  C   C88       1.0  0.07913890519158476  0.02855110465532311  0.3441857559074013  1.0000
  N   N1        1.0  0.7349138036013768  0.7813602061227624  0.09926982136345197  1.0000
  N   N2        1.0  0.7650861965422497  0.7813602061227624  0.4007301786816827  1.0000
  N   N3        1.0  0.2650861963283626  0.21863979346606813  0.9007301785883998  1.0000
  N   N4        1.0  0.234913803477189  0.21863979346606813  0.5992698219897579  1.0000
  N   N5        1.0  0.6304581964803098  0.4650062084199983  0.7883636905795217  1.0000
  N   N6        1.0  0.869541803459149  0.4650062084199983  0.7116363097080504  1.0000
  N   N7        1.0  0.36954180344942966  0.5349937911688324  0.21163630937233002  1.0000
  N   N8        1.0  0.1304581964705904  0.5349937911688324  0.2883636902438014  1.0000
  N   N9        1.0  0.6210357095301844  0.26357781881940234  0.14299597636098976  1.0000
  N   N10       1.0  0.8789642898796584  0.26357781881940234  0.3570040236885228  1.0000
  N   N11       1.0  0.3789642903995551  0.736422181646873  0.8570040235908618  1.0000
  N   N12       1.0  0.12103571005008104  0.736422181646873  0.6429959762633289  1.0000
  N   N13       1.0  0.7539493391227846  0.928578980796277  0.8917459568861078  1.0000
  N   N14       1.0  0.7460506607269749  0.928578980796277  0.6082540426818752  1.0000
  N   N15       1.0  0.2460506608069548  0.07142101966999842  0.10825404306574384  1.0000
  N   N16       1.0  0.2539493392027645  0.07142101966999842  0.39174595726997646  1.0000
  O   O1        1.0  0.8726841047631904  0.6741947510896251  0.15167262352636424  1.0000
  O   O2        1.0  0.6273158946466525  0.6741947510896251  0.3483273765231483  1.0000
  O   O3        1.0  0.12731589516654912  0.32580524849920545  0.8483273764254875  1.0000
  O   O4        1.0  0.372684105283087  0.32580524849920545  0.6516726234287035  1.0000
  O   O5        1.0  0.63751510748176  0.5278595914702586  0.963538750633866  1.0000
  O   O6        1.0  0.8624848924576988  0.5278595914702586  0.536461249653706  1.0000
  O   O7        1.0  0.36248489244797943  0.472140408118572  0.03646124931798569  1.0000
  O   O8        1.0  0.13751510747204063  0.472140408118572  0.4635387502981457  1.0000
  O   O9        1.0  0.6960896259725176  0.6963271237093059  0.908099354800189  1.0000
  O   O10       1.0  0.8039103739669413  0.6963271237093059  0.591900645487383  1.0000
  O   O11       1.0  0.3039103739572218  0.3036728767569694  0.09190064515166263  1.0000
  O   O12       1.0  0.19608962596279825  0.3036728767569694  0.40809935446446877  1.0000
  O   O13       1.0  0.8812923312904423  0.058755719932508194  0.9167439067010158  1.0000
  O   O14       1.0  0.6187076686490165  0.058755719932508194  0.5832560935865562  1.0000
  O   O15       1.0  0.1187076686392972  0.9412442805337672  0.08325609325083588  1.0000
  O   O16       1.0  0.3812923312807228  0.9412442805337672  0.41674390636529546  1.0000
  O   O17       1.0  0.6480506895134042  0.18894828513054365  0.9762322947653228  1.0000
  O   O18       1.0  0.8519493104260546  0.18894828513054365  0.5237677055222493  1.0000
  O   O19       1.0  0.3519493104163352  0.8110517144582869  0.023767705186528938  1.0000
  O   O20       1.0  0.14805068950368486  0.8110517144582869  0.4762322944296024  1.0000
  O   O21       1.0  0.6802943925484819  0.019240717102118228  0.05705238004558018  1.0000
  O   O22       1.0  0.8197056075951445  0.019240717102118228  0.44294761999955445  1.0000
  O   O23       1.0  0.3197056073812575  0.9807592824867123  0.9429476199062715  1.0000
  O   O24       1.0  0.1802943924242942  0.9807592824867123  0.5570523806718861  1.0000
