data_image0
_chemical_formula_structural       H116C88N16O26
_chemical_formula_sum              "H116 C88 N16 O26"
_cell_length_a       13.877789246325312
_cell_length_b       13.985795785186653
_cell_length_c       11.566480804852516
_cell_angle_alpha    90.0
_cell_angle_beta     90.0
_cell_angle_gamma    90.0

_space_group_name_H-M_alt    "P 1"
_space_group_IT_number       1

loop_
  _space_group_symop_operation_xyz
  'x, y, z'

loop_
  _atom_site_type_symbol
  _atom_site_label
  _atom_site_symmetry_multiplicity
  _atom_site_fract_x
  _atom_site_fract_y
  _atom_site_fract_z
  _atom_site_occupancy
  H   H1        1.0  0.8874646264902138  0.1223055839133412  0.07550207489503852  1.0000
  H   H2        1.0  0.11253537377457526  0.8776944164308184  0.07550207489503852  1.0000
  H   H3        1.0  0.3874646267181072  0.3776944166162442  0.9244979255499961  1.0000
  H   H4        1.0  0.612535373546682  0.6223055837279154  0.9244979255499961  1.0000
  H   H5        1.0  0.7171428808544038  0.12086020459345932  0.16044781911723957  1.0000
  H   H6        1.0  0.28285711868980945  0.8791397950356892  0.16044781911723957  1.0000
  H   H7        1.0  0.21714288108229718  0.37913979522111496  0.8395521804632279  1.0000
  H   H8        1.0  0.782857119182492  0.6208602051230447  0.8395521804632279  1.0000
  H   H9        1.0  0.5510406516675487  0.1299991811639151  0.13545749363477008  1.0000
  H   H10       1.0  0.4489593485972404  0.8700008184652334  0.13545749363477008  1.0000
  H   H11       1.0  0.051040651895442095  0.37000081865065915  0.8645425059456974  1.0000
  H   H12       1.0  0.948959348369347  0.6299991809784894  0.8645425059456974  1.0000
  H   H13       1.0  0.4776492366574317  0.120980460889621  0.8822805001949012  1.0000
  H   H14       1.0  0.5223507628867815  0.8790195387395275  0.8822805001949012  1.0000
  H   H15       1.0  0.9776492371501143  0.3790195389249532  0.1177195002501335  1.0000
  H   H16       1.0  0.022350763114674918  0.6209804607041952  0.1177195002501335  1.0000
  H   H17       1.0  0.311690131131323  0.12256861578199586  0.8507732132207068  1.0000
  H   H18       1.0  0.6883098691334663  0.8774313838471526  0.8507732132207068  1.0000
  H   H19       1.0  0.8116901309034296  0.3774313840325784  0.14922678635976075  1.0000
  H   H20       1.0  0.1883098686407837  0.6225686155965702  0.14922678635976075  1.0000
  H   H21       1.0  0.13977754926013441  0.12310280204602762  0.9298123518683462  1.0000
  H   H22       1.0  0.8602224502840788  0.8768971982981321  0.9298123518683462  1.0000
  H   H23       1.0  0.6397775497528169  0.3768971984835578  0.07018764857668837  1.0000
  H   H24       1.0  0.3602224505119722  0.6231028018606019  0.07018764857668837  1.0000
  H   H25       1.0  0.7823677797149828  0.13853350140091025  0.7421413915630023  1.0000
  H   H26       1.0  0.21763222054980627  0.8614664989432493  0.7421413915630023  1.0000
  H   H27       1.0  0.28236777922230033  0.3614664991286751  0.2578586080174652  1.0000
  H   H28       1.0  0.7176322203219129  0.6385335012154845  0.2578586080174652  1.0000
  H   H29       1.0  0.6092168118375686  0.13247996813756366  0.8089647471748266  1.0000
  H   H30       1.0  0.3907831884272206  0.8675200322065959  0.8089647471748266  1.0000
  H   H31       1.0  0.10921681206546192  0.36752003239202174  0.191035253270208  1.0000
  H   H32       1.0  0.8907831881993272  0.6324799679521379  0.191035253270208  1.0000
  H   H33       1.0  0.23697961480938515  0.12320208563498655  0.26731301440476685  1.0000
  H   H34       1.0  0.7630203847348281  0.876797914709173  0.26731301440476685  1.0000
  H   H35       1.0  0.7369796145814919  0.3767979141795877  0.7326869860402678  1.0000
  H   H36       1.0  0.26302038496272145  0.6232020854495608  0.7326869860402678  1.0000
  H   H37       1.0  0.4117269032250917  0.11973830132524349  0.20586662530931873  1.0000
  H   H38       1.0  0.5882730970396974  0.880261698303905  0.20586662530931873  1.0000
  H   H39       1.0  0.9117269029971984  0.3802616984893307  0.7941333742711487  1.0000
  H   H40       1.0  0.08827309654701494  0.6197383018548288  0.7941333742711487  1.0000
  H   H41       1.0  0.9125926748998219  0.13387091723326008  0.8735596488225734  1.0000
  H   H42       1.0  0.08740732464439137  0.8661290831108995  0.8735596488225734  1.0000
  H   H43       1.0  0.41259267512771525  0.3661290832963254  0.12644035075789398  1.0000
  H   H44       1.0  0.5874073251370739  0.6338709170478343  0.12644035075789398  1.0000
  H   H45       1.0  0.10732955902139836  0.1939357703816066  0.49371189010267114  1.0000
  H   H46       1.0  0.892670440522815  0.806064229962553  0.49371189010267114  1.0000
  H   H47       1.0  0.6073295595140809  0.30606423014797884  0.5062881094777962  1.0000
  H   H48       1.0  0.3926704407507083  0.6939357701961808  0.5062881094777962  1.0000
  H   H49       1.0  0.09769564848803285  0.43271334023123176  0.46333751902753756  1.0000
  H   H50       1.0  0.9023043517767563  0.5672866601129278  0.46333751902753756  1.0000
  H   H51       1.0  0.5976956482601395  0.0672866602983536  0.5366624814174972  1.0000
  H   H52       1.0  0.40230435200464965  0.9327133400458061  0.5366624814174972  1.0000
  H   H53       1.0  0.1296809475959247  0.32320232680558003  0.3930160674362494  1.0000
  H   H54       1.0  0.8703190526688644  0.6767976728235685  0.3930160674362494  1.0000
  H   H55       1.0  0.6296809473680314  0.17679767300899427  0.6069839330087853  1.0000
  H   H56       1.0  0.3703190528967578  0.8232023266201542  0.6069839330087853  1.0000
  H   H57       1.0  0.21930584374639356  0.3960277809766461  0.4610341044929435  1.0000
  H   H58       1.0  0.7806941565183956  0.6039722186525024  0.4610341044929435  1.0000
  H   H59       1.0  0.7193058435185002  0.10397221883792816  0.5389658959520911  1.0000
  H   H60       1.0  0.2806941567462889  0.8960277815062315  0.5389658959520911  1.0000
  H   H61       1.0  0.15937566356872407  0.1977527780671144  0.7434477171649659  1.0000
  H   H62       1.0  0.8406243359754892  0.8022472222770453  0.7434477171649659  1.0000
  H   H63       1.0  0.6593756633408308  0.30224722246247104  0.25655228241550154  1.0000
  H   H64       1.0  0.34062433620338256  0.6977527778816887  0.25655228241550154  1.0000
  H   H65       1.0  0.10851268550563631  0.030369479615158807  0.5815072002867309  1.0000
  H   H66       1.0  0.8914873147591528  0.9696305207290009  0.5815072002867309  1.0000
  H   H67       1.0  0.608512685277743  0.46963052091442664  0.41849279929373656  1.0000
  H   H68       1.0  0.3914873142664704  0.530369479429733  0.41849279929373656  1.0000
  H   H69       1.0  0.1355348288271526  0.017685316144968936  0.72972461999496  1.0000
  H   H70       1.0  0.8644651707170606  0.9823146841991907  0.72972461999496  1.0000
  H   H71       1.0  0.6355348293198352  0.4823146836696053  0.2702753795855075  1.0000
  H   H72       1.0  0.36446517094495406  0.5176853159595433  0.2702753795855075  1.0000
  H   H73       1.0  0.22613147053165997  0.06156296382590925  0.6343100190787505  1.0000
  H   H74       1.0  0.7738685297331291  0.9384370358032392  0.6343100190787505  1.0000
  H   H75       1.0  0.7261314703037666  0.43843703598866496  0.3656899813662842  1.0000
  H   H76       1.0  0.27386852996102257  0.5615629636404835  0.3656899813662842  1.0000
  H   H77       1.0  0.6098721597347424  0.37100546366448683  0.8677805591298853  1.0000
  H   H78       1.0  0.3901278405300468  0.6289945359646617  0.8677805591298853  1.0000
  H   H79       1.0  0.10987215924205981  0.1289945361500874  0.13221944131514948  1.0000
  H   H80       1.0  0.8901278403021534  0.871005463479061  0.13221944131514948  1.0000
  H   H81       1.0  0.41550835566456407  0.30809864852767066  0.49000392994403696  1.0000
  H   H82       1.0  0.5844916438796492  0.6919013511014779  0.49000392994403696  1.0000
  H   H83       1.0  0.9155083561572466  0.19190135128690364  0.5099960705009977  1.0000
  H   H84       1.0  0.08449164410754259  0.808098649057256  0.5099960705009977  1.0000
  H   H85       1.0  0.4083775232067788  0.4703048529399227  0.5838650505663561  1.0000
  H   H86       1.0  0.5916224763374345  0.5296951466892258  0.5838650505663561  1.0000
  H   H87       1.0  0.9083775236994613  0.02969514687465153  0.4161349490141114  1.0000
  H   H88       1.0  0.09162247656532786  0.970304853469508  0.4161349490141114  1.0000
  H   H89       1.0  0.38280910854779726  0.47861790224979067  0.7331279758353539  1.0000
  H   H90       1.0  0.6171908917169919  0.521382098094369  0.7331279758353539  1.0000
  H   H91       1.0  0.8828091083199039  0.02138209756478358  0.2668720246096807  1.0000
  H   H92       1.0  0.11719089194488524  0.9786179020643649  0.2668720246096807  1.0000
  H   H93       1.0  0.29237534797369746  0.43474157519445394  0.6374275688856781  1.0000
  H   H94       1.0  0.7076246522910917  0.5652584251497057  0.6374275688856781  1.0000
  H   H95       1.0  0.7923753477458041  0.06525842462012034  0.3625724306947894  1.0000
  H   H96       1.0  0.20762465251898501  0.9347415750090281  0.3625724306947894  1.0000
  H   H97       1.0  0.36402833119386724  0.2978976358580082  0.7404415469575668  1.0000
  H   H98       1.0  0.6359716690709218  0.7021023637711402  0.7404415469575668  1.0000
  H   H99       1.0  0.8640283309659739  0.202102363956566  0.25955845262290056  1.0000
  H   H100      1.0  0.13597166929881524  0.7978976356725825  0.25955845262290056  1.0000
  H   H101      1.0  0.4284898130712402  0.07272316610523324  0.45357941265929386  1.0000
  H   H102      1.0  0.571510187193549  0.9272768342389264  0.45357941265929386  1.0000
  H   H103      1.0  0.9284898128433469  0.427276833709341  0.5464205877857409  1.0000
  H   H104      1.0  0.07151018670086647  0.5727231659198074  0.5464205877857409  1.0000
  H   H105      1.0  0.38902105545589916  0.18121654991447994  0.38655942593396375  1.0000
  H   H106      1.0  0.61097894480889  0.8187834504296797  0.38655942593396375  1.0000
  H   H107      1.0  0.8890210552280058  0.31878344990009433  0.6134405736465036  1.0000
  H   H108      1.0  0.11097894503678336  0.6812165497290541  0.6134405736465036  1.0000
  H   H109      1.0  0.3045838868838025  0.10145834615309754  0.45415426771781864  1.0000
  H   H110      1.0  0.6954161126604107  0.898541654191062  0.45415426771781864  1.0000
  H   H111      1.0  0.8045838873764851  0.39854165437648786  0.545845732727216  1.0000
  H   H112      1.0  0.1954161128883041  0.6014583459676718  0.545845732727216  1.0000
  H   H113      1.0  0.04173711891131153  0.5405395771620805  0.29777863363202267  1.0000
  H   H114      1.0  0.9582628813534777  0.45946042318207925  0.29777863363202267  1.0000
  H   H115      1.0  0.5417371186834181  0.9594604229966535  0.702221366813012  1.0000
  H   H116      1.0  0.458262881581371  0.040539576632495  0.702221366813012  1.0000
  C   C1        1.0  0.821984174678293  0.12392717773240879  0.022629407718395247  1.0000
  C   C2        1.0  0.17801582558649623  0.8760728226117508  0.022629407718395247  1.0000
  C   C3        1.0  0.3219841741856104  0.37607282208216547  0.9773705927266393  1.0000
  C   C4        1.0  0.6780158253586028  0.623927177546983  0.9773705927266393  1.0000
  C   C5        1.0  0.7294258127374583  0.12348229922169936  0.06731976157115394  1.0000
  C   C6        1.0  0.2705741875273308  0.8765177004074491  0.06731976157115394  1.0000
  C   C7        1.0  0.22942581224477582  0.37651770059287487  0.9326802380093134  1.0000
  C   C8        1.0  0.7705741872994374  0.6234822997512848  0.9326802380093134  1.0000
  C   C9        1.0  0.6498106276104352  0.12773460212340415  0.9918147104162576  1.0000
  C   C10       1.0  0.3501893726543539  0.8722653975057443  0.9918147104162576  1.0000
  C   C11       1.0  0.14981062711775273  0.37226539769117006  0.008185289164209806  1.0000
  C   C12       1.0  0.8501893724264605  0.6277346019379784  0.008185289164209806  1.0000
  C   C13       1.0  0.553577238682611  0.12788184365557217  0.04097681896477616  1.0000
  C   C14       1.0  0.44642276086160226  0.8721181566885875  0.04097681896477616  1.0000
  C   C15       1.0  0.05357723891050439  0.37211815687401323  0.9590231806156913  1.0000
  C   C16       1.0  0.9464227613542847  0.6278818434701464  0.9590231806156913  1.0000
  C   C17       1.0  0.4726009599646184  0.12434636517730266  0.976238051185179  1.0000
  C   C18       1.0  0.5273990395795949  0.875653635166857  0.976238051185179  1.0000
  C   C19       1.0  0.9726009604573008  0.37565363535228274  0.023761948395288463  1.0000
  C   C20       1.0  0.02739903980748828  0.624346364991877  0.023761948395288463  1.0000
  C   C21       1.0  0.37544908900959556  0.12150744627630929  0.022006247560901526  1.0000
  C   C22       1.0  0.6245509105346178  0.8784925533528393  0.022006247560901526  1.0000
  C   C23       1.0  0.8754490887817021  0.378492553538265  0.9779937528841331  1.0000
  C   C24       1.0  0.1245509107625111  0.6215074468058946  0.9779937528841331  1.0000
  C   C25       1.0  0.2975774748195938  0.12106105480199557  0.9435842953563925  1.0000
  C   C26       1.0  0.7024225247246195  0.878938944827153  0.9435842953563925  1.0000
  C   C27       1.0  0.7975774753122763  0.37893894501257863  0.056415705088642173  1.0000
  C   C28       1.0  0.20242252495251287  0.621061055331581  0.056415705088642173  1.0000
  C   C29       1.0  0.20394719430902458  0.12155117850359146  0.9850322092109569  1.0000
  C   C30       1.0  0.7960528059557646  0.878448821125557  0.9850322092109569  1.0000
  C   C31       1.0  0.7039471940811313  0.3784488213109828  0.014967791234077748  1.0000
  C   C32       1.0  0.2960528054630821  0.6215511783181658  0.014967791234077748  1.0000
  C   C33       1.0  0.7616098718892621  0.13306728402048967  0.8327867544602581  1.0000
  C   C34       1.0  0.23839012765495118  0.8669327156086588  0.8327867544602581  1.0000
  C   C35       1.0  0.2616098721171554  0.3669327157940846  0.16721324512020935  1.0000
  C   C36       1.0  0.7383901281476337  0.6330672845500751  0.16721324512020935  1.0000
  C   C37       1.0  0.667628977176846  0.13165443127306653  0.8717220025792076  1.0000
  C   C38       1.0  0.3323710223673673  0.8683455690710932  0.8717220025792076  1.0000
  C   C39       1.0  0.1676289774047393  0.36834556925651885  0.128277997865827  1.0000
  C   C40       1.0  0.8323710228600498  0.6316544310876409  0.128277997865827  1.0000
  C   C41       1.0  0.25978249388349944  0.12117079113903158  0.17719391010791838  1.0000
  C   C42       1.0  0.7402175063812896  0.8788292084901169  0.17719391010791838  1.0000
  C   C43       1.0  0.759782493655606  0.3788292086755427  0.8228060894725491  1.0000
  C   C44       1.0  0.24021750660918303  0.6211707909536058  0.8228060894725491  1.0000
  C   C45       1.0  0.3546195465753392  0.11997511158980549  0.14132969548647809  1.0000
  C   C46       1.0  0.6453804529688741  0.8800248887543541  0.14132969548647809  1.0000
  C   C47       1.0  0.8546195470680217  0.38002488822476876  0.8586703040939894  1.0000
  C   C48       1.0  0.14538045319676746  0.6199751114043798  0.8586703040939894  1.0000
  C   C49       1.0  0.1447190178746804  0.36990951458619165  0.4667889819810101  1.0000
  C   C50       1.0  0.8552809823901087  0.6300904850429568  0.4667889819810101  1.0000
  C   C51       1.0  0.6447190176467871  0.1300904852283826  0.5332110175994573  1.0000
  C   C52       1.0  0.3552809826180022  0.8699095151157771  0.5332110175994573  1.0000
  C   C53       1.0  0.13233562186328  0.3187488919809438  0.5808759201140326  1.0000
  C   C54       1.0  0.8676643776809332  0.6812511083632158  0.5808759201140326  1.0000
  C   C55       1.0  0.6323356216353866  0.18125110854864157  0.41912407946643493  1.0000
  C   C56       1.0  0.36766437790882667  0.8187488917955181  0.41912407946643493  1.0000
  C   C57       1.0  0.11419696623650905  0.16432154918450562  0.6766920199890308  1.0000
  C   C58       1.0  0.8858030333077042  0.835678451159654  0.6766920199890308  1.0000
  C   C59       1.0  0.6141969667291916  0.3356784513450798  0.3233079795914366  1.0000
  C   C60       1.0  0.38580303353559764  0.6643215489990799  0.3233079795914366  1.0000
  C   C61       1.0  0.14873063593659477  0.06224973490047144  0.6535097561246834  1.0000
  C   C62       1.0  0.8512693636076185  0.937750264728677  0.6535097561246834  1.0000
  C   C63       1.0  0.6487306364292772  0.4377502649141028  0.3464902443203512  1.0000
  C   C64       1.0  0.3512693638355118  0.5622497347150457  0.3464902443203512  1.0000
  C   C65       1.0  0.011445277571285918  0.15925146800434817  0.7264653339047444  1.0000
  C   C66       1.0  0.9885547226935032  0.8407485316248003  0.7264653339047444  1.0000
  C   C67       1.0  0.5114452773433925  0.340748531810226  0.273534665675723  1.0000
  C   C68       1.0  0.4885547229213966  0.6592514678189224  0.273534665675723  1.0000
  C   C69       1.0  0.36998345621652773  0.43569863621590665  0.655453593699771  1.0000
  C   C70       1.0  0.6300165440482615  0.5643013634132419  0.655453593699771  1.0000
  C   C71       1.0  0.8699834559886344  0.06430136359866762  0.3445464067452637  1.0000
  C   C72       1.0  0.13001654355557896  0.935698636745492  0.3445464067452637  1.0000
  C   C73       1.0  0.4075652583856377  0.3341664558658953  0.674340104098712  1.0000
  C   C74       1.0  0.5924347418791515  0.6658335444782644  0.674340104098712  1.0000
  C   C75       1.0  0.9075652581577444  0.16583354466369013  0.3256598954817554  1.0000
  C   C76       1.0  0.09243474138646895  0.8341664556804695  0.3256598954817554  1.0000
  C   C77       1.0  0.3872487998348165  0.1827219958914833  0.573580091640034  1.0000
  C   C78       1.0  0.6127511997093968  0.8172780037376651  0.573580091640034  1.0000
  C   C79       1.0  0.887248800327499  0.31727800392309097  0.4264199079404334  1.0000
  C   C80       1.0  0.11275119993729012  0.6827219957060576  0.4264199079404334  1.0000
  C   C81       1.0  0.37731745215734014  0.1323318378465298  0.45906897522125834  1.0000
  C   C82       1.0  0.6226825473868731  0.8676681617826187  0.45906897522125834  1.0000
  C   C83       1.0  0.8773174526500227  0.36766816196804447  0.540931024359209  1.0000
  C   C84       1.0  0.12268254761476653  0.6323318383761153  0.540931024359209  1.0000
  C   C85       1.0  0.5108715872650461  0.3403510070582996  0.7224570256922284  1.0000
  C   C86       1.0  0.4891284129997431  0.65964899328586  0.7224570256922284  1.0000
  C   C87       1.0  0.010871586772363594  0.15964899275627462  0.27754297388823906  1.0000
  C   C88       1.0  0.9891284127718497  0.8403510068728739  0.27754297388823906  1.0000
  N   N1        1.0  0.8359372918904795  0.12927875737432482  0.9076994253598185  1.0000
  N   N2        1.0  0.16406270837430964  0.8707212422548237  0.9076994253598185  1.0000
  N   N3        1.0  0.335937291397797  0.3707212424402494  0.09230057422064886  1.0000
  N   N4        1.0  0.6640627081464163  0.6292787579039102  0.09230057422064886  1.0000
  N   N5        1.0  0.18727904307151746  0.12243734616901149  0.09969421982840557  1.0000
  N   N6        1.0  0.8127209571932718  0.8775626541751481  0.09969421982840557  1.0000
  N   N7        1.0  0.6872790428436241  0.37756265364556274  0.9003057806166291  1.0000
  N   N8        1.0  0.31272095742116507  0.6224373459835857  0.9003057806166291  1.0000
  N   N9        1.0  0.12214905053763227  0.2228499255867266  0.5739005434751717  1.0000
  N   N10       1.0  0.877850949006581  0.777150074757433  0.5739005434751717  1.0000
  N   N11       1.0  0.622149050309739  0.27715007422784765  0.4260994561052957  1.0000
  N   N12       1.0  0.3778509492344744  0.7228499254013008  0.4260994561052957  1.0000
  N   N13       1.0  0.39983236245421866  0.27790897419771865  0.5695132003535965  1.0000
  N   N14       1.0  0.6001676370899947  0.722091026146441  0.5695132003535965  1.0000
  N   N15       1.0  0.8998323629469012  0.2220910256168556  0.430486800091438  1.0000
  N   N16       1.0  0.10016763731788798  0.777908974012293  0.430486800091438  1.0000
  O   O1        1.0  0.9386405290344938  0.16764609079187326  0.662363364385291  1.0000
  O   O2        1.0  0.06135947123029533  0.8323539088372752  0.662363364385291  1.0000
  O   O3        1.0  0.43864052926238717  0.332353909022701  0.33763663519517645  1.0000
  O   O4        1.0  0.561359471002402  0.6676460906064475  0.33763663519517645  1.0000
  O   O5        1.0  0.13476608246484384  0.36298459865809113  0.6749669282920274  1.0000
  O   O6        1.0  0.8652339170793694  0.6370154016860685  0.6749669282920274  1.0000
  O   O7        1.0  0.6347660829575263  0.13701540187149427  0.32503307215300714  1.0000
  O   O8        1.0  0.3652339173072628  0.8629845984726653  0.32503307215300714  1.0000
  O   O9        1.0  0.008525318254946688  0.1418712342490792  0.8356216556331579  1.0000
  O   O10       1.0  0.9914746820098425  0.8581287660950805  0.8356216556331579  1.0000
  O   O11       1.0  0.5085253180270533  0.3581287662805062  0.1643783439473095  1.0000
  O   O12       1.0  0.49147468151715995  0.6418712340636535  0.1643783439473095  1.0000
  O   O13       1.0  0.5831314625377256  0.33040703374880065  0.658160432584323  1.0000
  O   O14       1.0  0.4168685370064877  0.669592966595359  0.658160432584323  1.0000
  O   O15       1.0  0.08313146276561897  0.16959296678078478  0.3418395678607116  1.0000
  O   O16       1.0  0.9168685374991702  0.8304070335633749  0.3418395678607116  1.0000
  O   O17       1.0  0.3810323493275541  0.13759779919268403  0.6673521514652636  1.0000
  O   O18       1.0  0.6189676502166592  0.8624022011514756  0.6673521514652636  1.0000
  O   O19       1.0  0.8810323498202366  0.3624022006218902  0.33264784897977107  1.0000
  O   O20       1.0  0.11896765044455254  0.6375977990072583  0.33264784897977107  1.0000
  O   O21       1.0  0.5146206995390905  0.36060559423738875  0.8309448061304722  1.0000
  O   O22       1.0  0.4853793007256986  0.6393944061067709  0.8309448061304722  1.0000
  O   O23       1.0  0.014620699046408024  0.13939440629219665  0.16905519344999537  1.0000
  O   O24       1.0  0.9853793004978052  0.860605594051963  0.16905519344999537  1.0000
  O   O25       1.0  0.0  0.49999999981457427  0.24919051340065332  1.0000
  O   O26       1.0  0.49999999977210663  0.0  0.7508094870443813  1.0000
