data_image0
_chemical_formula_structural       H112C88N16O26
_chemical_formula_sum              "H112 C88 N16 O26"
_cell_length_a       13.984021495602253
_cell_length_b       13.71627793668489
_cell_length_c       11.381202515705713
_cell_angle_alpha    90.0
_cell_angle_beta     90.0
_cell_angle_gamma    90.0

_space_group_name_H-M_alt    "P 1"
_space_group_IT_number       1

loop_
  _space_group_symop_operation_xyz
  'x, y, z'

loop_
  _atom_site_type_symbol
  _atom_site_label
  _atom_site_symmetry_multiplicity
  _atom_site_fract_x
  _atom_site_fract_y
  _atom_site_fract_z
  _atom_site_occupancy
  H   H1        1.0  0.761575912433288  0.8780865221305769  0.23742187227326114  1.0000
  H   H2        1.0  0.2615759122760462  0.6219134775028999  0.7625781281040529  1.0000
  H   H3        1.0  0.7384240880384374  0.37808652200973103  0.7625781281040529  1.0000
  H   H4        1.0  0.2384240878811956  0.12191347738205403  0.23742187227326114  1.0000
  H   H5        1.0  0.5886311239287391  0.8845361982313648  0.29964666433918874  1.0000
  H   H6        1.0  0.08863112377149715  0.6154638014021121  0.7003533351594835  1.0000
  H   H7        1.0  0.9113688765429866  0.3845361988395797  0.7003533351594835  1.0000
  H   H8        1.0  0.4113688763857447  0.1154638012812662  0.29964666433918874  1.0000
  H   H9        1.0  0.6870297541391353  0.8871656797981926  0.6601406415211416  1.0000
  H   H10       1.0  0.1870297539818935  0.612834320564345  0.33985935797753064  1.0000
  H   H11       1.0  0.8129702456174882  0.3871656796773467  0.33985935797753064  1.0000
  H   H12       1.0  0.3129702461753483  0.11283432044349914  0.6601406415211416  1.0000
  H   H13       1.0  0.857727335714699  0.8812661988767992  0.580238756922824  1.0000
  H   H14       1.0  0.35772733555745706  0.6187338007566775  0.41976124345449006  1.0000
  H   H15       1.0  0.6422726640419247  0.38126619875595347  0.41976124345449006  1.0000
  H   H16       1.0  0.14227266459978477  0.11873380136489242  0.580238756922824  1.0000
  H   H17       1.0  0.5215745815532215  0.8900374144030048  0.6279789881725716  1.0000
  H   H18       1.0  0.021574581395979658  0.609962585230472  0.37202101220474243  1.0000
  H   H19       1.0  0.9784254182034021  0.39003741501121963  0.37202101220474243  1.0000
  H   H20       1.0  0.47842541876126216  0.10996258510962618  0.6279789881725716  1.0000
  H   H21       1.0  0.45213231987582136  0.8648022703210777  0.3703090261493926  1.0000
  H   H22       1.0  0.9521323200330631  0.6351977300414599  0.6296909733492796  1.0000
  H   H23       1.0  0.047867680281420466  0.36480227020023187  0.6296909733492796  1.0000
  H   H24       1.0  0.5478676797235604  0.135197729920614  0.3703090261493926  1.0000
  H   H25       1.0  0.38838657690193235  0.874751255798765  0.6997229483449006  1.0000
  H   H26       1.0  0.8883865763440723  0.6252487445637726  0.30027705203241356  1.0000
  H   H27       1.0  0.11161342325530947  0.3747512556779191  0.30027705203241356  1.0000
  H   H28       1.0  0.6116134234125512  0.12524874444292672  0.6997229483449006  1.0000
  H   H29       1.0  0.2156619196379544  0.8670787246291731  0.7628905142508677  1.0000
  H   H30       1.0  0.7156619190800944  0.6329212750043036  0.23710948612644633  1.0000
  H   H31       1.0  0.28433808051928744  0.3670787245083273  0.23710948612644633  1.0000
  H   H32       1.0  0.7843380806765292  0.13292127488345784  0.7628905142508677  1.0000
  H   H33       1.0  0.11667159697323778  0.8735243281965626  0.42160869234848736  1.0000
  H   H34       1.0  0.6166715971304797  0.6264756714369144  0.5783913071501849  1.0000
  H   H35       1.0  0.3833284024689022  0.3735243280757166  0.5783913071501849  1.0000
  H   H36       1.0  0.883328402626144  0.12647567204512924  0.42160869234848736  1.0000
  H   H37       1.0  0.28704296122988243  0.8740207310859929  0.3392450459142533  1.0000
  H   H38       1.0  0.7870429613871243  0.6259792692765447  0.6607549544630608  1.0000
  H   H39       1.0  0.2129570389273594  0.37402073096514693  0.6607549544630608  1.0000
  H   H40       1.0  0.7129570390846013  0.1259792691556989  0.3392450459142533  1.0000
  H   H41       1.0  0.8884942184841015  0.870447677213344  0.3758099167550738  1.0000
  H   H42       1.0  0.3884942183268596  0.6295523224201328  0.6241900836222403  1.0000
  H   H43       1.0  0.6115057819876241  0.3704476770924981  0.6241900836222403  1.0000
  H   H44       1.0  0.1115057818303822  0.12955232302834774  0.3758099167550738  1.0000
  H   H45       1.0  0.08709729746790162  0.7937840455157386  0.9939905896928438  1.0000
  H   H46       1.0  0.5870972976251435  0.706215954846799  0.006009410684470109  1.0000
  H   H47       1.0  0.41290270268934026  0.2937840453948928  0.006009410684470109  1.0000
  H   H48       1.0  0.9129027028465821  0.20621595472595305  0.9939905896928438  1.0000
  H   H49       1.0  0.1657467911307854  0.5806906776580713  0.9668006772408896  1.0000
  H   H50       1.0  0.6657467912880272  0.9193093227044663  0.03319932313642438  1.0000
  H   H51       1.0  0.33425320902645644  0.08069067753722542  0.03319932313642438  1.0000
  H   H52       1.0  0.8342532084685964  0.4193093225836204  0.9668006772408896  1.0000
  H   H53       1.0  0.08590755744889263  0.6611666664864798  0.8921050913547013  1.0000
  H   H54       1.0  0.5859075568910326  0.8388333338760577  0.10789490814397104  1.0000
  H   H55       1.0  0.4140924427083492  0.16116666636563398  0.10789490814397104  1.0000
  H   H56       1.0  0.9140924428655911  0.33883333375521185  0.8921050913547013  1.0000
  H   H57       1.0  0.04337767216610501  0.5504028363123594  0.960301388620208  1.0000
  H   H58       1.0  0.5433776723233468  0.9495971640501781  0.03969861175710607  1.0000
  H   H59       1.0  0.45662232799113683  0.050402836191513554  0.03969861175710607  1.0000
  H   H60       1.0  0.9566223281483787  0.4495971639293323  0.960301388620208  1.0000
  H   H61       1.0  0.12830115790112565  0.7871126591219663  0.24908474180016976  1.0000
  H   H62       1.0  0.6283011580583674  0.7128873412405713  0.7509152576985024  1.0000
  H   H63       1.0  0.37169884225611616  0.2871126590011204  0.7509152576985024  1.0000
  H   H64       1.0  0.871698842413358  0.21288734111972543  0.24908474180016976  1.0000
  H   H65       1.0  0.20134370938184404  0.9211944055322826  0.1344369435381342  1.0000
  H   H66       1.0  0.7013437095390859  0.5788055948302551  0.8655630559605381  1.0000
  H   H67       1.0  0.2986562907753978  0.4211944054114367  0.8655630559605381  1.0000
  H   H68       1.0  0.7986562902175378  0.07880559470940914  0.1344369435381342  1.0000
  H   H69       1.0  0.11470994023460741  0.9713308720849725  0.2313967110563009  1.0000
  H   H70       1.0  0.6147099403918492  0.5286691282775651  0.7686032884423712  1.0000
  H   H71       1.0  0.3852900592075325  0.4713308719641266  0.7686032884423712  1.0000
  H   H72       1.0  0.8852900593647745  0.028669128156719265  0.2313967110563009  1.0000
  H   H73       1.0  0.08571143146318368  0.9576981824542172  0.08123128102888995  1.0000
  H   H74       1.0  0.5857114316204255  0.5423018171792595  0.9187687193484241  1.0000
  H   H75       1.0  0.4142885686940581  0.4576981823333714  0.9187687193484241  1.0000
  H   H76       1.0  0.9142885688513  0.04230181778747443  0.08123128102888995  1.0000
  H   H77       1.0  0.08833515955252755  0.8664365176076574  0.6272642359318682  1.0000
  H   H78       1.0  0.5883351597097694  0.6335634827548802  0.37273576356680405  1.0000
  H   H79       1.0  0.4116648406047143  0.36643651748681155  0.37273576356680405  1.0000
  H   H80       1.0  0.9116648407619561  0.13356348263403428  0.6272642359318682  1.0000
  H   H81       1.0  0.890376335871312  0.8048024180434484  0.011536863509704297  1.0000
  H   H82       1.0  0.39037633642917213  0.6951975823190891  0.9884631368676098  1.0000
  H   H83       1.0  0.6096236638853115  0.3048024179226025  0.9884631368676098  1.0000
  H   H84       1.0  0.10962366372806971  0.19519758219824332  0.011536863509704297  1.0000
  H   H85       1.0  0.7756566538038533  0.5868838461249193  0.03686382343351042  1.0000
  H   H86       1.0  0.27565665364661146  0.9131161542376183  0.9631361760651619  1.0000
  H   H87       1.0  0.7243433459527703  0.08688384600407344  0.9631361760651619  1.0000
  H   H88       1.0  0.2243433465106304  0.41311615411677244  0.03686382343351042  1.0000
  H   H89       1.0  0.8329903528583162  0.685547575180783  0.11219138208268893  1.0000
  H   H90       1.0  0.33299035270107435  0.8144524251817545  0.8878086174159834  1.0000
  H   H91       1.0  0.6670096468983074  0.18554757505993721  0.8878086174159834  1.0000
  H   H92       1.0  0.16700964745616745  0.31445242506090865  0.11219138208268893  1.0000
  H   H93       1.0  0.8994890228076183  0.5798634962570838  0.07183823843497462  1.0000
  H   H94       1.0  0.3994890233654783  0.9201365041054537  0.9281617610636977  1.0000
  H   H95       1.0  0.6005109769490053  0.07986349613623799  0.9281617610636977  1.0000
  H   H96       1.0  0.1005109767917635  0.42013650398460783  0.07183823843497462  1.0000
  H   H97       1.0  0.8458221559313042  0.793834358727762  0.756769640827882  1.0000
  H   H98       1.0  0.3458221557740624  0.7061656409057149  0.24323035867079018  1.0000
  H   H99       1.0  0.6541778438253193  0.29383435933597696  0.24323035867079018  1.0000
  H   H100      1.0  0.15417784438317939  0.20616564078486893  0.756769640827882  1.0000
  H   H101      1.0  0.7748652884585211  0.9328675737736296  0.8661937626007279  1.0000
  H   H102      1.0  0.27486528830127926  0.5671324258598471  0.13380623777658623  1.0000
  H   H103      1.0  0.7251347112981025  0.43286757365278383  0.13380623777658623  1.0000
  H   H104      1.0  0.22513471185596257  0.06713242573900127  0.8661937626007279  1.0000
  H   H105      1.0  0.8632536751889556  0.9782902367493976  0.7668880698639249  1.0000
  H   H106      1.0  0.3632536750317137  0.5217097628840791  0.23311192963474736  1.0000
  H   H107      1.0  0.63674632528277  0.47829023735761256  0.23311192963474736  1.0000
  H   H108      1.0  0.13674632512552815  0.021709762763233293  0.7668880698639249  1.0000
  H   H109      1.0  0.8901244748454185  0.9682499626578619  0.918322660156261  1.0000
  H   H110      1.0  0.3901244746881767  0.5317500369756148  0.08167734022105302  1.0000
  H   H111      1.0  0.609875524911205  0.4682499625370161  0.08167734022105302  1.0000
  H   H112      1.0  0.10987552475396328  0.03175003758382975  0.918322660156261  1.0000
  C   C1        1.0  0.7392436956172448  0.8809689826772721  0.32903025271998676  1.0000
  C   C2        1.0  0.2392436954600029  0.6190310169562047  0.6709697476573272  1.0000
  C   C3        1.0  0.7607563041393788  0.38096898328548706  0.6709697476573272  1.0000
  C   C4        1.0  0.2607563046972389  0.11903101683535884  0.32903025271998676  1.0000
  C   C5        1.0  0.6450697936095745  0.8833317606954487  0.3654031130946913  1.0000
  C   C6        1.0  0.14506979345233273  0.6166682396670888  0.6345968864039809  1.0000
  C   C7        1.0  0.8549302068621509  0.3833317605746029  0.6345968864039809  1.0000
  C   C8        1.0  0.3549302067049091  0.11666823954624297  0.3654031130946913  1.0000
  C   C9        1.0  0.6238780398573942  0.8834892115731554  0.48654182037078364  1.0000
  C   C10       1.0  0.12387804041525424  0.6165107887893821  0.5134581791278886  1.0000
  C   C11       1.0  0.8761219598992295  0.3834892114523095  0.5134581791278886  1.0000
  C   C12       1.0  0.3761219597419876  0.11651078866853627  0.48654182037078364  1.0000
  C   C13       1.0  0.7012139943494624  0.8850940507359086  0.5660562353678957  1.0000
  C   C14       1.0  0.2012139941922206  0.6149059488975681  0.4339437650094183  1.0000
  C   C15       1.0  0.798786006122263  0.3850940506150628  0.4339437650094183  1.0000
  C   C16       1.0  0.2987860059650212  0.11490594877672229  0.5660562353678957  1.0000
  C   C17       1.0  0.7941277495527572  0.8828481732360359  0.5242224590737853  1.0000
  C   C18       1.0  0.2941277493955154  0.6171518263974408  0.47577754130352873  1.0000
  C   C19       1.0  0.7058722502038665  0.3828481731151902  0.47577754130352873  1.0000
  C   C20       1.0  0.20587225004662457  0.11715182627659491  0.5242224590737853  1.0000
  C   C21       1.0  0.5270711584874155  0.8820043415454398  0.5326524206589167  1.0000
  C   C22       1.0  0.02707115833017363  0.617995658088037  0.46734757971839735  1.0000
  C   C23       1.0  0.97292884198431  0.382004341424594  0.46734757971839735  1.0000
  C   C24       1.0  0.47292884182706824  0.11799565869625186  0.5326524206589167  1.0000
  C   C25       1.0  0.44761997412321763  0.8722223503507915  0.46577565179818753  1.0000
  C   C26       1.0  0.9476199742804595  0.6277776492826852  0.5342243485791265  1.0000
  C   C27       1.0  0.05238002603402419  0.3722223509590065  0.5342243485791265  1.0000
  C   C28       1.0  0.552380026191266  0.1277776491618394  0.46577565179818753  1.0000
  C   C29       1.0  0.351111255910476  0.8726972824008762  0.5126715144509667  1.0000
  C   C30       1.0  0.8511112560677178  0.6273027179616614  0.4873284850477056  1.0000
  C   C31       1.0  0.14888874424676585  0.3726972822800303  0.4873284850477056  1.0000
  C   C32       1.0  0.6488887444040077  0.12730271784081554  0.5126715144509667  1.0000
  C   C33       1.0  0.33145300595094523  0.8727494663828065  0.6343444526215194  1.0000
  C   C34       1.0  0.8314530053930852  0.6272505332506703  0.3656555477557946  1.0000
  C   C35       1.0  0.1685469942062966  0.3727494662619607  0.3656555477557946  1.0000
  C   C36       1.0  0.6685469943635384  0.12725053385888516  0.6343444526215194  1.0000
  C   C37       1.0  0.2374121257639713  0.8707579392260886  0.6711769357814948  1.0000
  C   C38       1.0  0.7374121252061112  0.6292420604073883  0.3288230645958192  1.0000
  C   C39       1.0  0.2625878743932706  0.37075793983430344  0.3288230645958192  1.0000
  C   C40       1.0  0.7625878745505124  0.1292420602865424  0.6711769357814948  1.0000
  C   C41       1.0  0.18081651982551553  0.8736513772406286  0.4766493841502145  1.0000
  C   C42       1.0  0.6808165199827573  0.6263486223928483  0.5233506153484577  1.0000
  C   C43       1.0  0.31918347961662447  0.37365137711978264  0.5233506153484577  1.0000
  C   C44       1.0  0.8191834797738663  0.1263486230010632  0.4766493841502145  1.0000
  C   C45       1.0  0.2734079607359284  0.8735057692258873  0.4336653366099915  1.0000
  C   C46       1.0  0.7734079608931702  0.6264942304075896  0.5663346637673226  1.0000
  C   C47       1.0  0.22659203942131342  0.37350576983410216  0.5663346637673226  1.0000
  C   C48       1.0  0.7265920388634534  0.1264942302867437  0.4336653366099915  1.0000
  C   C49       1.0  0.09308495202251828  0.6113466976032043  0.9667598590585088  1.0000
  C   C50       1.0  0.5930849521797601  0.8886533020302726  0.033240141318805275  1.0000
  C   C51       1.0  0.4069150481347235  0.11134669748235844  0.033240141318805275  1.0000
  C   C52       1.0  0.9069150475768635  0.38865330190942665  0.9667598590585088  1.0000
  C   C53       1.0  0.07905741709190553  0.664702790515454  0.08021033355133077  1.0000
  C   C54       1.0  0.5790574172491474  0.8352972091180229  0.9197896659473415  1.0000
  C   C55       1.0  0.42094258306533633  0.16470279039460817  0.9197896659473415  1.0000
  C   C56       1.0  0.9209425825074763  0.33529720972623767  0.08021033355133077  1.0000
  C   C57       1.0  0.0853254409237886  0.8225224067402321  0.1803743354155321  1.0000
  C   C58       1.0  0.5853254410810305  0.6774775928932446  0.819625664961782  1.0000
  C   C59       1.0  0.41467455923345325  0.32252240661938625  0.819625664961782  1.0000
  C   C60       1.0  0.9146745586755931  0.1774775935014596  0.1803743354155321  1.0000
  C   C61       1.0  0.9836499582273842  0.8355014394502551  0.22970774453686033  1.0000
  C   C62       1.0  0.48364995807014244  0.6644985609122824  0.770292254961812  1.0000
  C   C63       1.0  0.5163500415292395  0.33550143932940923  0.770292254961812  1.0000
  C   C64       1.0  0.016350041371997557  0.1644985607914366  0.22970774453686033  1.0000
  C   C65       1.0  0.12475659026615826  0.9242704390010383  0.15456556348702502  1.0000
  C   C66       1.0  0.6247565904234001  0.5757295606324384  0.8454344360116473  1.0000
  C   C67       1.0  0.37524340989108357  0.42427043888019256  0.8454344360116473  1.0000
  C   C68       1.0  0.8752434093332235  0.07572956051159253  0.15456556348702502  1.0000
  C   C69       1.0  0.8415153733638618  0.6298572885355257  0.044113028417443016  1.0000
  C   C70       1.0  0.34151537320661995  0.8701427118270119  0.955886971959871  1.0000
  C   C71       1.0  0.6584846263927618  0.1298572884146799  0.955886971959871  1.0000
  C   C72       1.0  0.15848462623551995  0.37014271170616597  0.044113028417443016  1.0000
  C   C73       1.0  0.86071223101203  0.6762363006069122  0.9268398295736606  1.0000
  C   C74       1.0  0.36071223156989  0.8237636990265645  0.07316017080365342  1.0000
  C   C75       1.0  0.6392877687445937  0.17623630121512707  0.07316017080365342  1.0000
  C   C76       1.0  0.1392877685873518  0.32376369890571877  0.9268398295736606  1.0000
  C   C77       1.0  0.8884617385569115  0.8302249241788321  0.8250803328595133  1.0000
  C   C78       1.0  0.38846173839966963  0.6697750761837055  0.1749196675178007  1.0000
  C   C79       1.0  0.6115382611997121  0.33022492405798626  0.1749196675178007  1.0000
  C   C80       1.0  0.11153826175757217  0.16977507606285958  0.8250803328595133  1.0000
  C   C81       1.0  0.9910389450100844  0.836678716556664  0.7768019106768176  1.0000
  C   C82       1.0  0.49103894485284255  0.6633212838058735  0.22319808970049648  1.0000
  C   C83       1.0  0.5089610547465393  0.3366787164358181  0.22319808970049648  1.0000
  C   C84       1.0  0.008961054589297395  0.16332128368502777  0.7768019106768176  1.0000
  C   C85       1.0  0.8515121664926455  0.9337140818462714  0.8454012330175454  1.0000
  C   C86       1.0  0.3515121663354037  0.5662859185162662  0.15459876648112678  1.0000
  C   C87       1.0  0.6484878332639782  0.4337140817254254  0.15459876648112678  1.0000
  C   C88       1.0  0.14848783310673627  0.0662859183954204  0.8454012330175454  1.0000
  N   N1        1.0  0.8111180223490855  0.87996764324223  0.40782163779221664  1.0000
  N   N2        1.0  0.3111180221918436  0.6200323571203076  0.5921783617064557  1.0000
  N   N3        1.0  0.6888819774075382  0.3799676431213842  0.5921783617064557  1.0000
  N   N4        1.0  0.18888197725029635  0.12003235699946166  0.40782163779221664  1.0000
  N   N5        1.0  0.1648752793125411  0.8714037018769248  0.5932724763206905  1.0000
  N   N6        1.0  0.664875278754681  0.6285962984856127  0.40672752405662355  1.0000
  N   N7        1.0  0.3351247208447008  0.3714037017560789  0.40672752405662355  1.0000
  N   N8        1.0  0.8351247210019427  0.12859629836476694  0.5932724763206905  1.0000
  N   N9        1.0  0.09025382365129468  0.7617031754698556  0.07626087654641665  1.0000
  N   N10       1.0  0.5902538230934347  0.7382968241636212  0.9237391238308974  1.0000
  N   N11       1.0  0.40974617650594714  0.26170317607807053  0.9237391238308974  1.0000
  N   N12       1.0  0.9097461766631889  0.23829682404277527  0.07626087654641665  1.0000
  N   N13       1.0  0.8781717036019986  0.7731426119353668  0.9305782886636631  1.0000
  N   N14       1.0  0.37817170344475676  0.7268573876981099  0.06942171083500909  1.0000
  N   N15       1.0  0.6218282968697268  0.273142611814521  0.06942171083500909  1.0000
  N   N16       1.0  0.12182829671248502  0.22685738757726406  0.9305782886636631  1.0000
  O   O1        1.0  0.0626017401557418  0.6222104013490628  0.17754507111278692  1.0000
  O   O2        1.0  0.5626017403129836  0.8777895990134748  0.8224549283858853  1.0000
  O   O3        1.0  0.43739826000150006  0.12221040122821694  0.8224549283858853  1.0000
  O   O4        1.0  0.93739825944364  0.37778959889262886  0.17754507111278692  1.0000
  O   O5        1.0  0.9815744336717956  0.8529886922681994  0.34082816158020657  1.0000
  O   O6        1.0  0.48157443422965573  0.6470113073652775  0.6591718379184657  1.0000
  O   O7        1.0  0.5184255660848279  0.3529886921473535  0.6591718379184657  1.0000
  O   O8        1.0  0.01842556592758606  0.14701130724443154  0.34082816158020657  1.0000
  O   O9        1.0  0.912017904435489  0.8353781151776056  0.16337253971486035  1.0000
  O   O10       1.0  0.41201790427824714  0.6646218851849319  0.8366274606624536  1.0000
  O   O11       1.0  0.5879820960362365  0.3353781150567598  0.8366274606624536  1.0000
  O   O12       1.0  0.08798209587899466  0.16462188506408612  0.16337253971486035  1.0000
  O   O13       1.0  0.994185780847961  0.8573901392408168  0.666613577917655  1.0000
  O   O14       1.0  0.4941857814058212  0.6426098603926601  0.33338642245965916  1.0000
  O   O15       1.0  0.5058142189086625  0.3573901398490316  0.33338642245965916  1.0000
  O   O16       1.0  0.005814218751420646  0.1426098602718142  0.666613577917655  1.0000
  O   O17       1.0  0.06294341297149816  0.8261575999194722  0.8420707062170872  1.0000
  O   O18       1.0  0.56294341312874  0.6738424004430653  0.15792929328158495  1.0000
  O   O19       1.0  0.4370565864706418  0.32615759979862646  0.15792929328158495  1.0000
  O   O20       1.0  0.9370565866278836  0.1738424003222194  0.8420707062170872  1.0000
  O   O21       1.0  0.8578653975734143  0.6292238200362645  0.8323404127927169  1.0000
  O   O22       1.0  0.35786539741617257  0.8707761795972122  0.16765958670595543  1.0000
  O   O23       1.0  0.6421346028983111  0.12922381991541876  0.16765958670595543  1.0000
  O   O24       1.0  0.1421346027410693  0.3707761802054271  0.8323404127927169  1.0000
  O   O25       1.0  0.0  0.5000000001208458  0.17004664466072864  1.0000
  O   O26       1.0  0.5000000001572419  0.0  0.8299533548379435  1.0000
