data_image0
_chemical_formula_structural       H84C52N12O28S8
_chemical_formula_sum              "H84 C52 N12 O28 S8"
_cell_length_a       8.265963624866284
_cell_length_b       15.401123888221859
_cell_length_c       13.915300509000376
_cell_angle_alpha    90.0
_cell_angle_beta     105.9703868026301
_cell_angle_gamma    90.0

_space_group_name_H-M_alt    "P 1"
_space_group_IT_number       1

loop_
  _space_group_symop_operation_xyz
  'x, y, z'

loop_
  _atom_site_type_symbol
  _atom_site_label
  _atom_site_symmetry_multiplicity
  _atom_site_fract_x
  _atom_site_fract_y
  _atom_site_fract_z
  _atom_site_occupancy
  H   H1        1.0  0.13242061523518114  0.743909692770011  0.9255052605670085  1.0000
  H   H2        1.0  0.36757938485451075  0.24390969238763172  0.5744947395762938  1.0000
  H   H3        1.0  0.8675793848863521  0.2560903073454443  0.07449473899031382  1.0000
  H   H4        1.0  0.6324206152831894  0.7560903077278235  0.4255052607022449  1.0000
  H   H5        1.0  0.9799494191360919  0.6710850724280021  0.8514276122247532  1.0000
  H   H6        1.0  0.5200505804332533  0.17108507269492612  0.6485723877342403  1.0000
  H   H7        1.0  0.020050581001608284  0.3289149276874532  0.14857238805378561  1.0000
  H   H8        1.0  0.47994941970444716  0.8289149274205291  0.35142761254429855  1.0000
  H   H9        1.0  0.01732280640049054  0.8722167094748904  0.9873261706270773  1.0000
  H   H10       1.0  0.4826771936892014  0.37221670909251114  0.5126738295162252  1.0000
  H   H11       1.0  0.9826771937372097  0.12778329064056484  0.012673829651461573  1.0000
  H   H12       1.0  0.5173228064484989  0.6277832910229442  0.4873261707623136  1.0000
  H   H13       1.0  0.5327495259109057  0.7863492780070247  0.9925138530146702  1.0000
  H   H14       1.0  0.9672504736584393  0.2863492782739487  0.5074861469443234  1.0000
  H   H15       1.0  0.46725047422679455  0.21365072210843056  0.007486147263868696  1.0000
  H   H16       1.0  0.03274952520485025  0.7136507218415065  0.49251385241658596  1.0000
  H   H17       1.0  0.992754478874213  0.585743445444197  0.010532073693834534  1.0000
  H   H18       1.0  0.5072455212953285  0.08574344506181775  0.4894679259987242  1.0000
  H   H19       1.0  0.007245521247320183  0.4142565546712582  0.9894679258634879  1.0000
  H   H20       1.0  0.4927544788423718  0.9142565550536376  0.5105320742798146  1.0000
  H   H21       1.0  0.16476212167045323  0.6518215568460719  0.0744503125170246  1.0000
  H   H22       1.0  0.3352378777773586  0.15182155711299586  0.42554968788464653  1.0000
  H   H23       1.0  0.835237878467247  0.3481784432693834  0.9255496877615143  1.0000
  H   H24       1.0  0.6647621223603416  0.8481784430024594  0.5744503123938923  1.0000
  H   H25       1.0  0.24367201094152957  0.5073357267111832  0.014930875540811087  1.0000
  H   H26       1.0  0.25632798849011523  0.0073357263288039145  0.4850691241396436  1.0000
  H   H27       1.0  0.7563279891800035  0.4926642734042721  0.9850691240165113  1.0000
  H   H28       1.0  0.743672011647585  0.9926642731373481  0.5149308761388952  1.0000
  H   H29       1.0  0.15245347727714198  0.5404486705262777  0.8903003391185386  1.0000
  H   H30       1.0  0.34754652281254994  0.040448670143898406  0.609699661024764  1.0000
  H   H31       1.0  0.8475465228605583  0.4595513295891776  0.10969966116000034  1.0000
  H   H32       1.0  0.6524534773251504  0.9595513293222536  0.39030033925377483  1.0000
  H   H33       1.0  0.6770059408802672  0.9323663041878094  0.09526509816673291  1.0000
  H   H34       1.0  0.8229940592892744  0.4323663044547334  0.4047349015258258  1.0000
  H   H35       1.0  0.3229940592574331  0.06763369592764586  0.904734902111806  1.0000
  H   H36       1.0  0.17700594083225882  0.5676336956607219  0.5952650980314966  1.0000
  H   H37       1.0  0.8343121045450598  0.9797012022959609  0.0448371437265421  1.0000
  H   H38       1.0  0.6656878956244816  0.4797012025628849  0.45516285596601663  1.0000
  H   H39       1.0  0.16568789557647337  0.020298797819494337  0.9551628558307804  1.0000
  H   H40       1.0  0.3343121045132186  0.5202987975525704  0.5448371443125222  1.0000
  H   H41       1.0  0.6241678379425292  0.9679957442197572  0.9683516648744873  1.0000
  H   H42       1.0  0.875832161626816  0.46799574383737796  0.5316483350845063  1.0000
  H   H43       1.0  0.375832162195171  0.03200425589569802  0.031648335404051604  1.0000
  H   H44       1.0  0.1241678372526408  0.5320042562780772  0.4683516649976195  1.0000
  H   H45       1.0  0.7051489031446929  0.6496881008568548  0.9276881172742143  1.0000
  H   H46       1.0  0.7948510964246521  0.14968810112377887  0.5723118826847793  1.0000
  H   H47       1.0  0.29485109573476376  0.3503118986092971  0.07231188280791148  1.0000
  H   H48       1.0  0.20514890369688107  0.8503118989916764  0.42768811687254316  1.0000
  H   H49       1.0  0.46480433007646765  0.56112798797814  0.9374149109863217  1.0000
  H   H50       1.0  0.03519566999705724  0.061127988245063984  0.5625850884357645  1.0000
  H   H51       1.0  0.5351956700450655  0.438872011488012  0.06258508857100081  1.0000
  H   H52       1.0  0.9648043301244759  0.9388720118703913  0.43741491112155795  1.0000
  H   H53       1.0  0.4529584007559545  0.629351984332299  0.038616700118001064  1.0000
  H   H54       1.0  0.047041598691857305  0.12935198394991979  0.46138330028367003  1.0000
  H   H55       1.0  0.5470415981235021  0.37064801578315626  0.9613832999641246  1.0000
  H   H56       1.0  0.9529584014458429  0.8706480161655356  0.5386166999948688  1.0000
  H   H57       1.0  0.36359592214901604  0.6626792008215147  0.9127885963042355  1.0000
  H   H58       1.0  0.13640407792450884  0.1626792004391354  0.5872114031178506  1.0000
  H   H59       1.0  0.6364040779725172  0.3373207992939406  0.08721140325308682  1.0000
  H   H60       1.0  0.8635959221970244  0.8373207996763199  0.4127885964394719  1.0000
  H   H61       1.0  0.4763023924202547  0.9861439145759318  0.766446328479322  1.0000
  H   H62       1.0  0.023697607653270253  0.4861439148428558  0.733553670942764  1.0000
  H   H63       1.0  0.523697606443035  0.013856085539523444  0.23355367088158732  1.0000
  H   H64       1.0  0.9763023924682629  0.5138560852725994  0.26644632861455836  1.0000
  H   H65       1.0  0.6542160094538237  0.8718349788919362  0.7454468489107889  1.0000
  H   H66       1.0  0.8457839901155213  0.37183497850955705  0.7545531510482045  1.0000
  H   H67       1.0  0.34578398940946586  0.128165021223519  0.25455315045012045  1.0000
  H   H68       1.0  0.1542160100221789  0.6281650216058983  0.24544684923033425  1.0000
  H   H69       1.0  0.5378151325963094  0.719249363903333  0.7223013095837637  1.0000
  H   H70       1.0  0.9621848682312794  0.2192493641702571  0.7776986905716429  1.0000
  H   H71       1.0  0.46218486754139093  0.28075063556281893  0.2776986906947752  1.0000
  H   H72       1.0  0.03781513190642095  0.7807506359451982  0.2223013097068959  1.0000
  H   H73       1.0  0.061584473044164534  0.8240021171250503  0.7425197190284404  1.0000
  H   H74       1.0  0.4384155270455274  0.3240021167426711  0.7574802811148622  1.0000
  H   H75       1.0  0.9384155270935357  0.17599788299040486  0.25748028125009853  1.0000
  H   H76       1.0  0.561584473092173  0.6759978833727841  0.24251971916367668  1.0000
  H   H77       1.0  0.2379356027951999  0.6953161196365372  0.7227547694315879  1.0000
  H   H78       1.0  0.26206439729449205  0.19531611925415787  0.7772452307117145  1.0000
  H   H79       1.0  0.7620643973425003  0.30468388047891815  0.2772452308469509  1.0000
  H   H80       1.0  0.7379356028432081  0.8046838808612974  0.2227547695668243  1.0000
  H   H81       1.0  0.19560895626627692  0.9719850939870809  0.7630926113260024  1.0000
  H   H82       1.0  0.30439104382341503  0.4719850936047016  0.7369073888173  1.0000
  H   H83       1.0  0.8043910438714234  0.028014906128374404  0.2369073889525364  1.0000
  H   H84       1.0  0.6956089562981183  0.5280149058614504  0.2630926107400223  1.0000
  C   C1        1.0  0.03326904794210592  0.6971253414960736  0.9267365636922804  1.0000
  C   C2        1.0  0.46673095214758603  0.19712534111369429  0.5732634364510221  1.0000
  C   C3        1.0  0.9667309521955944  0.3028746586193817  0.07326343658625843  1.0000
  C   C4        1.0  0.5332690479901142  0.8028746583524577  0.4267365638275168  1.0000
  C   C5        1.0  0.9098317598854926  0.830405999771266  0.9805998909265791  1.0000
  C   C6        1.0  0.5901682396838526  0.33040600003819  0.5194001090324143  1.0000
  C   C7        1.0  0.09016824025220771  0.16959400034418928  0.01940010935195972  1.0000
  C   C8        1.0  0.4098317604538477  0.6695940000772653  0.4805998912461244  1.0000
  C   C9        1.0  0.657645364598995  0.7817248135512542  0.981810195864708  1.0000
  C   C10       1.0  0.84235463497035  0.28172481316887493  0.5181898040942856  1.0000
  C   C11       1.0  0.34235463428046164  0.21827518656420106  0.018189804217417838  1.0000
  C   C12       1.0  0.15764536515118321  0.7182751869465803  0.48181019546303683  1.0000
  C   C13       1.0  0.09950657731243995  0.6241108051439587  0.0011971960268887343  1.0000
  C   C14       1.0  0.40049342211920486  0.12411080541088268  0.49880280365356594  1.0000
  C   C15       1.0  0.9004934228252603  0.37588919497149653  0.99880280425165  1.0000
  C   C16       1.0  0.5995065767440847  0.8758891947045726  0.5011971957073434  1.0000
  C   C17       1.0  0.2183073706483403  0.5641397863596512  0.9653177853162386  1.0000
  C   C18       1.0  0.28169262942518464  0.06413978597727192  0.5346822141058475  1.0000
  C   C19       1.0  0.781692629473193  0.4358602137558041  0.03468221424108383  1.0000
  C   C20       1.0  0.7183073706963486  0.9358602134888802  0.46531778545147495  1.0000
  C   C21       1.0  0.7224776500241519  0.938748720218835  0.028923043855977205  1.0000
  C   C22       1.0  0.7775223501615566  0.4387487204857591  0.471076956557798  1.0000
  C   C23       1.0  0.2775223501135483  0.06125127989662015  0.9710769564225616  1.0000
  C   C24       1.0  0.2224776499761436  0.5612512796296961  0.5289230437207408  1.0000
  C   C25       1.0  0.74251004673249  0.7152653377734657  0.9518358807640053  1.0000
  C   C26       1.0  0.7574899528368552  0.21526533804038975  0.5481641191949883  1.0000
  C   C27       1.0  0.25748995340521036  0.28473466169268624  0.04816411951453362  1.0000
  C   C28       1.0  0.24251004728467807  0.7847346620750656  0.45183588036233413  1.0000
  C   C29       1.0  0.3840368970209869  0.6066676755418751  0.9635776339251161  1.0000
  C   C30       1.0  0.115963103068705  0.10666767580879905  0.5364223662181866  1.0000
  C   C31       1.0  0.6159631031167133  0.3933323245735802  0.0364223663534229  1.0000
  C   C32       1.0  0.8840368970528282  0.8933323243066561  0.4635776333391359  1.0000
  C   C33       1.0  0.5243925749283319  0.8563721125629326  0.7427613385910103  1.0000
  C   C34       1.0  0.9756074246410131  0.3563721121805533  0.7572386613679831  1.0000
  C   C35       1.0  0.4756074252093682  0.14362788755252268  0.25723866168752846  1.0000
  C   C36       1.0  0.02439257548052013  0.6436278872855986  0.2427613381893393  1.0000
  C   C37       1.0  0.45807172993248046  0.7732354532325577  0.7303536429583541  1.0000
  C   C38       1.0  0.041928270157211435  0.27323545285017836  0.7696463571849482  1.0000
  C   C39       1.0  0.5419282702052198  0.2267645468828976  0.2696463573201846  1.0000
  C   C40       1.0  0.9580717299804888  0.7267645466159737  0.23035364309359052  1.0000
  C   C41       1.0  0.19235620100203668  0.8312806729508189  0.7421811410248748  1.0000
  C   C42       1.0  0.3076437990876552  0.3312806725684397  0.7578188591184276  1.0000
  C   C43       1.0  0.8076437991356635  0.16871932716463633  0.25781885925366405  1.0000
  C   C44       1.0  0.692356201050045  0.6687193275470157  0.24218114116011114  1.0000
  C   C45       1.0  0.29104009949355236  0.7605176904626736  0.7305921615734711  1.0000
  C   C46       1.0  0.20895990059613959  0.2605176900802943  0.7694078385698314  1.0000
  C   C47       1.0  0.708959900644148  0.23948230965278164  0.2694078387050678  1.0000
  C   C48       1.0  0.791040098283317  0.7394823093858577  0.23059216151229434  1.0000
  C   C49       1.0  0.2639277660216788  0.9133135108897563  0.7543018914656168  1.0000
  C   C50       1.0  0.23607223406801317  0.4133135111566802  0.7456981086776857  1.0000
  C   C51       1.0  0.7360722340998544  0.08668648857639576  0.2456981080917056  1.0000
  C   C52       1.0  0.7639277660696873  0.5866864889587751  0.25430189160085315  1.0000
  N   N1        1.0  0.7643581227014691  0.8527952508741483  0.9989879480189474  1.0000
  N   N2        1.0  0.7356418768678761  0.35279525114107235  0.501012051940046  1.0000
  N   N3        1.0  0.23564187616182056  0.1472047492413069  0.0010120513419618771  1.0000
  N   N4        1.0  0.2643581232698242  0.6472047489743828  0.49898794833849275  1.0000
  N   N5        1.0  0.8992189398810106  0.7470027176911618  0.9521196413868396  1.0000
  N   N6        1.0  0.6007810609465781  0.24700271730878243  0.547880358768567  1.0000
  N   N7        1.0  0.1007810602405227  0.2529972824242936  0.04788035817048278  1.0000
  N   N8        1.0  0.3992189391911221  0.7529972821573696  0.45211964150997186  1.0000
  N   N9        1.0  0.4264639736369934  0.9233220499495506  0.7546837911261784  1.0000
  N   N10       1.0  0.0735360264365315  0.42332205021647457  0.7453162082959076  1.0000
  N   N11       1.0  0.5735360264845397  0.07667795016590469  0.24531620843114396  1.0000
  N   N12       1.0  0.9264639724267582  0.5766779498989807  0.2546837910650017  1.0000
  O   O1        1.0  0.8045938954983309  0.06179347539226097  0.8664006836768592  1.0000
  O   O2        1.0  0.6954061040710141  0.5617934757746402  0.6335993162821344  1.0000
  O   O3        1.0  0.1954061046393693  0.9382065247231943  0.1335993166016797  1.0000
  O   O4        1.0  0.30459389605051906  0.43820652434081503  0.36640068327518804  1.0000
  O   O5        1.0  0.49721169758158984  0.09348432558880145  0.8088257432390213  1.0000
  O   O6        1.0  0.002788302508102036  0.5934843259711807  0.691174256904281  1.0000
  O   O7        1.0  0.5027883025561104  0.9065156745266538  0.19117425703951743  1.0000
  O   O8        1.0  0.9972116976134312  0.40651567414427453  0.3088257426530413  1.0000
  O   O9        1.0  0.7055650756477995  0.032337764673192375  0.6811526013688345  1.0000
  O   O10       1.0  0.7944349239215456  0.5323377650555716  0.818847398590159  1.0000
  O   O11       1.0  0.2944349244899007  0.9676622354422628  0.31884739890970437  1.0000
  O   O12       1.0  0.20556507619998768  0.46766223505988364  0.18115260096716337  1.0000
  O   O13       1.0  0.8990690552688608  0.9334513516246903  0.7970507048378773  1.0000
  O   O14       1.0  0.6009309443004843  0.4334513518916143  0.7029492951211161  1.0000
  O   O15       1.0  0.10093094485267239  0.06654864849076497  0.202949294719445  1.0000
  O   O16       1.0  0.399069055837216  0.566548648223841  0.2970507051574227  1.0000
  O   O17       1.0  0.6969054955953216  0.21087120352844319  0.8085435579561459  1.0000
  O   O18       1.0  0.8030945039740236  0.7108712039108225  0.6914564420028476  1.0000
  O   O19       1.0  0.3030945045262117  0.7891287959377088  0.19145644160117656  1.0000
  O   O20       1.0  0.19690549616367664  0.28912879620463283  0.3085435582756912  1.0000
  O   O21       1.0  0.9995277161728671  0.07486520518686125  0.757561219931311  1.0000
  O   O22       1.0  0.5004722846547216  0.5748652055692406  0.7424387802240956  1.0000
  O   O23       1.0  0.0004722839648332748  0.9251347942792908  0.24243878034722785  1.0000
  O   O24       1.0  0.4995277154829786  0.4251347945462148  0.25756122005444326  1.0000
  O   O25       1.0  0.6763437989677686  0.14853712862796273  0.9677480157316365  1.0000
  O   O26       1.0  0.8236562006015763  0.6485371283610387  0.5322519842273571  1.0000
  O   O27       1.0  0.32365620116993155  0.8514628714874926  0.03225198454690238  1.0000
  O   O28       1.0  0.17634379953612384  0.35146287110511326  0.4677480160511817  1.0000
  S   S1        1.0  0.6567839755331518  0.13608693788917905  0.8612650940239481  1.0000
  S   S2        1.0  0.8432160252944366  0.6360869382715584  0.6387349061314584  1.0000
  S   S3        1.0  0.34321602460454836  0.863913061576973  0.13873490625459073  1.0000
  S   S4        1.0  0.15678397482709647  0.36391306184389693  0.36126509342586394  1.0000
  S   S5        1.0  0.856284780482668  0.02238030824903619  0.7639386206767789  1.0000
  S   S6        1.0  0.6437152190866772  0.5223803079821121  0.7360613792822146  1.0000
  S   S7        1.0  0.14371521965503237  0.9776196918664191  0.23606137960175996  1.0000
  S   S8        1.0  0.35628478105102307  0.47761969213334304  0.26393862099632415  1.0000
