data_image0
_chemical_formula_structural       H12C4N2I4
_chemical_formula_sum              "H12 C4 N2 I4"
_cell_length_a       6.469187209685091
_cell_length_b       7.450062662301767
_cell_length_c       8.1010857825327
_cell_angle_alpha    63.970014779637914
_cell_angle_beta     67.36255065305511
_cell_angle_gamma    69.77623023330135

_space_group_name_H-M_alt    "P 1"
_space_group_IT_number       1

loop_
  _space_group_symop_operation_xyz
  'x, y, z'

loop_
  _atom_site_type_symbol
  _atom_site_label
  _atom_site_symmetry_multiplicity
  _atom_site_fract_x
  _atom_site_fract_y
  _atom_site_fract_z
  _atom_site_occupancy
  H   H1        1.0  0.7945698989487149  0.23683323928689584  0.4020986992373009  1.0000
  H   H2        1.0  0.20543010034373374  0.7631667616433581  0.5979013011279056  1.0000
  H   H3        1.0  0.5110090940269431  0.26055286331176514  0.4504279341015832  1.0000
  H   H4        1.0  0.4889909052655055  0.7394471376184888  0.5495720662636233  1.0000
  H   H5        1.0  0.6312154720290835  0.5285923759331893  0.16278864131439472  1.0000
  H   H6        1.0  0.3687845278349763  0.47140762356672083  0.8372113590505105  1.0000
  H   H7        1.0  0.7656353249231296  0.5933590373402926  0.2780695826267663  1.0000
  H   H8        1.0  0.23436467494093013  0.40664096215961765  0.7219304177381388  1.0000
  H   H9        1.0  0.7535880066706478  0.3798208260468354  0.6228693594143961  1.0000
  H   H10       1.0  0.24641199262180066  0.6201791748834184  0.37713064095081034  1.0000
  H   H11       1.0  0.6155368934664658  0.16950925725197813  0.73768401562159  1.0000
  H   H12       1.0  0.38446310687045254  0.8304907427880657  0.26231598331380557  1.0000
  C   C1        1.0  0.6182582475119547  0.5374707695159012  0.29818549123659704  1.0000
  C   C2        1.0  0.381741752352105  0.46252922998400897  0.701814509128308  1.0000
  C   C3        1.0  0.6071129918572119  0.3270075495804168  0.6364778742687287  1.0000
  C   C4        1.0  0.39288700800684784  0.6729924499194934  0.3635221260961763  1.0000
  N   N1        1.0  0.6344970692186087  0.3262823834698912  0.44485171151434894  1.0000
  N   N2        1.0  0.3655029305466986  0.6737176180004963  0.555148287421348  1.0000
  I   I1        1.0  0.23631327327891324  0.23978594064092723  0.3071738469393295  1.0000
  I   I2        1.0  0.7636867265851467  0.7602140588589831  0.6928261534255755  1.0000
  I   I3        1.0  0.7702439806492952  0.07532397373020344  0.09166357908836799  1.0000
  I   I4        1.0  0.22975601911601212  0.924676027740184  0.9083364198473289  1.0000
