data_image0
_chemical_formula_structural       H12C4N2I4
_chemical_formula_sum              "H12 C4 N2 I4"
_cell_length_a       6.413527999191337
_cell_length_b       7.434540057214688
_cell_length_c       8.088458446050135
_cell_angle_alpha    64.62616894219524
_cell_angle_beta     68.17721719396218
_cell_angle_gamma    69.96179947402796

_space_group_name_H-M_alt    "P 1"
_space_group_IT_number       1

loop_
  _space_group_symop_operation_xyz
  'x, y, z'

loop_
  _atom_site_type_symbol
  _atom_site_label
  _atom_site_symmetry_multiplicity
  _atom_site_fract_x
  _atom_site_fract_y
  _atom_site_fract_z
  _atom_site_occupancy
  H   H1        1.0  0.02059220066015378  0.7623544841911549  0.4403842063819484  1.0000
  H   H2        1.0  0.979407799319124  0.23764551646545157  0.5596157925752762  1.0000
  H   H3        1.0  0.30382162235296944  0.7428322507024029  0.39785223849461143  1.0000
  H   H4        1.0  0.6961783771727341  0.2571677494297717  0.6021477618816552  1.0000
  H   H5        1.0  0.13334980866018395  0.0357452775283483  0.16278882541239015  1.0000
  H   H6        1.0  0.8666501913190937  0.9642547231282581  0.8372111735448343  1.0000
  H   H7        1.0  0.26637518402889293  0.09748898018252714  0.2837064636549309  1.0000
  H   H8        1.0  0.7336248175091801  0.9025110204787441  0.716293535299196  1.0000
  H   H9        1.0  0.8806549750296937  0.33242282840611276  0.2683781935952416  1.0000
  H   H10       1.0  0.11934502449601007  0.6675771717260618  0.7316218067810251  1.0000
  H   H11       1.0  0.7457348339588692  0.12158120326924549  0.372979617364035  1.0000
  H   H12       1.0  0.2542651660204085  0.8784187973873611  0.6270203815931895  1.0000
  C   C1        1.0  0.11959931641019046  0.04162452300285337  0.2996991245504159  1.0000
  C   C2        1.0  0.8804006836872809  0.9583754756967228  0.7003008758281669  1.0000
  C   C3        1.0  0.8906759723522812  0.17426430683210228  0.36542962464642625  1.0000
  C   C4        1.0  0.10932402717342254  0.8257356933000722  0.6345703757298404  1.0000
  N   N1        1.0  0.14040943380199822  0.8290865182410512  0.4408053317298435  1.0000
  N   N2        1.0  0.8595905677360748  0.1709134824202198  0.5591946672242833  1.0000
  I   I1        1.0  0.2638866592795294  0.2608442588657078  0.6922308802772033  1.0000
  I   I2        1.0  0.7361133402461744  0.7391557412664667  0.30776912009906354  1.0000
  I   I3        1.0  0.2705636845356114  0.5763007164254035  0.09062188978921074  1.0000
  I   I4        1.0  0.72943631556186  0.42369928227417286  0.909378110589372  1.0000
