data_image0
_chemical_formula_structural       H88C100N4O8P4
_chemical_formula_sum              "H88 C100 N4 O8 P4"
_cell_length_a       10.332213498066455
_cell_length_b       9.662612316081866
_cell_length_c       22.924804674326047
_cell_angle_alpha    90.0
_cell_angle_beta     90.0
_cell_angle_gamma    120.16113363954715

_space_group_name_H-M_alt    "P 1"
_space_group_IT_number       1

loop_
  _space_group_symop_operation_xyz
  'x, y, z'

loop_
  _atom_site_type_symbol
  _atom_site_label
  _atom_site_symmetry_multiplicity
  _atom_site_fract_x
  _atom_site_fract_y
  _atom_site_fract_z
  _atom_site_occupancy
  H   H1        1.0  0.018967987188210838  0.0003538545912594775  0.33015365397971524  1.0000
  H   H2        1.0  0.9810320137170208  0.4996461455350396  0.8301536541034666  1.0000
  H   H3        1.0  0.9810320124422314  0.9996461448062278  0.6698463458315789  1.0000
  H   H4        1.0  0.01896798744108899  0.5003538550669787  0.16984634570782742  1.0000
  H   H5        1.0  0.8155023746415768  0.7278020400537898  0.3597744485577595  1.0000
  H   H6        1.0  0.1844976252417435  0.7721979598194165  0.859774448245302  1.0000
  H   H7        1.0  0.18449762498886538  0.2721979593436974  0.6402255516897434  1.0000
  H   H8        1.0  0.8155023749449735  0.22780204077501376  0.14022555156599192  1.0000
  H   H9        1.0  0.6805794853442402  0.6967461514917624  0.45349399603142454  1.0000
  H   H10       1.0  0.31942051453908005  0.8032538483814439  0.953493996155176  1.0000
  H   H11       1.0  0.31942051428620194  0.30325384790572474  0.5465060037798695  1.0000
  H   H12       1.0  0.6805794856476368  0.19674615221298644  0.046506004092326816  1.0000
  H   H13       1.0  0.7438673878892558  0.926522471468142  0.5159455615011788  1.0000
  H   H14       1.0  0.25613261199406445  0.5734775284050643  0.015945561377427378  1.0000
  H   H15       1.0  0.2561326117411863  0.07347752792934509  0.48405443831011524  1.0000
  H   H16       1.0  0.7438673881926524  0.426522472189366  0.9840544384338668  1.0000
  H   H17       1.0  0.4154821563269033  0.5657378324037394  0.41656176249539817  1.0000
  H   H18       1.0  0.5845178435564169  0.9342621674694668  0.9165617621829408  1.0000
  H   H19       1.0  0.5845178433035387  0.43426216699374764  0.5834382377521046  1.0000
  H   H20       1.0  0.4154821566303  0.06573783312496347  0.08343823762835324  1.0000
  H   H21       1.0  0.5026584616854086  0.7282527603835613  0.508847669837036  1.0000
  H   H22       1.0  0.4973415381979115  0.771747239489645  0.00884766971328461  1.0000
  H   H23       1.0  0.49734153850130824  0.271747240210869  0.49115232997425806  1.0000
  H   H24       1.0  0.5026584614325306  0.22825275990784216  0.9911523300980094  1.0000
  H   H25       1.0  0.3228676985711853  0.6636011400047572  0.5899141912927803  1.0000
  H   H26       1.0  0.677132301312135  0.8363988598684491  0.0899141911690289  1.0000
  H   H27       1.0  0.6771323016155316  0.33639886058967305  0.4100858089547225  1.0000
  H   H28       1.0  0.32286769831830714  0.16360113952903807  0.9100858086422652  1.0000
  H   H29       1.0  0.06851491062702  0.4372776907880432  0.5842234204507455  1.0000
  H   H30       1.0  0.9314850893068188  0.06272230933066796  0.08422342032699402  1.0000
  H   H31       1.0  0.9314850890034222  0.5627223086094439  0.41577657979675736  1.0000
  H   H32       1.0  0.0685149108798981  0.9372776912637623  0.9157765794842999  1.0000
  H   H33       1.0  0.8198966641157708  0.19508607946169146  0.34710848895090685  1.0000
  H   H34       1.0  0.18010333581806798  0.30491392065701967  0.8471084886384496  1.0000
  H   H35       1.0  0.18010333607094617  0.804913921132739  0.652891511296596  1.0000
  H   H36       1.0  0.8198966638123739  0.6950860787404674  0.15289151117284455  1.0000
  H   H37       1.0  0.7017833769156383  0.32268845425030007  0.2929343619455473  1.0000
  H   H38       1.0  0.2982166230182005  0.17731154586841105  0.7929343620692986  1.0000
  H   H39       1.0  0.2982166227148038  0.677311545147187  0.7070656378657468  1.0000
  H   H40       1.0  0.7017833771685165  0.8226884547260193  0.2070656377419954  1.0000
  H   H41       1.0  0.8571818990571034  0.603201487562451  0.2563697821417875  1.0000
  H   H42       1.0  0.1428181008262169  0.8967985123107556  0.7563697818293302  1.0000
  H   H43       1.0  0.1428181005733387  0.3967985118350363  0.7436302181057153  1.0000
  H   H44       1.0  0.8571818988042252  0.10320148708673167  0.24363021798196394  1.0000
  H   H45       1.0  0.13331016658760506  0.7529282891518528  0.2744463531698537  1.0000
  H   H46       1.0  0.8666898332957151  0.7470717107213536  0.7744463532936051  1.0000
  H   H47       1.0  0.866689833042837  0.24707171024563435  0.7255536466414403  1.0000
  H   H48       1.0  0.13331016689100172  0.25292828987307675  0.22555364651768892  1.0000
  H   H49       1.0  0.25226657461876256  0.6251719457236752  0.32800031044194955  1.0000
  H   H50       1.0  0.7477334252645577  0.8748280541495312  0.828000310565701  1.0000
  H   H51       1.0  0.7477334250116796  0.374828053673812  0.6719996893693445  1.0000
  H   H52       1.0  0.25226657492215926  0.1251719464448991  0.17199968924559308  1.0000
  H   H53       1.0  0.7297681922112518  0.133631415367219  0.5249314326100699  1.0000
  H   H54       1.0  0.27023180772258715  0.3663685847514921  0.024931432922527294  1.0000
  H   H55       1.0  0.2702318079754653  0.8663685852272114  0.4750685672012241  1.0000
  H   H56       1.0  0.729768191907855  0.633631414645995  0.9750685673249755  1.0000
  H   H57       1.0  0.8549835826677671  0.3278726870098649  0.5506120597021439  1.0000
  H   H58       1.0  0.1450164172660717  0.17212731310884627  0.05061205957839247  1.0000
  H   H59       1.0  0.14501641751894978  0.6721273135845653  0.4493879401091502  1.0000
  H   H60       1.0  0.8549835823643704  0.8278726862886409  0.9493879402329016  1.0000
  H   H61       1.0  0.8609240106392176  0.160085128145911  0.58053748413851  1.0000
  H   H62       1.0  0.13907598929462123  0.3399148719728001  0.08053748401475871  1.0000
  H   H63       1.0  0.13907598899122453  0.8399148712515762  0.41946251610899266  1.0000
  H   H64       1.0  0.8609240108920958  0.6600851286216302  0.9194625157965354  1.0000
  H   H65       1.0  0.32724379022151207  0.13570107295275227  0.28752265738524885  1.0000
  H   H66       1.0  0.6727562097123267  0.3642989271659589  0.7875226575090003  1.0000
  H   H67       1.0  0.67275620940893  0.8642989264447348  0.7124773424260452  1.0000
  H   H68       1.0  0.3272437904743903  0.6357010734284715  0.2124773427385025  1.0000
  H   H69       1.0  0.4088255715569501  0.989079431411653  0.22117384475159374  1.0000
  H   H70       1.0  0.5911744283263702  0.5109205684615535  0.7211738444391363  1.0000
  H   H71       1.0  0.5911744280734921  0.01092056798583431  0.778826155495909  1.0000
  H   H72       1.0  0.40882557186034674  0.4890794321328768  0.2788261553721576  1.0000
  H   H73       1.0  0.5457648521127233  0.8591353645172336  0.2613853677327422  1.0000
  H   H74       1.0  0.45423514777059687  0.6408646353559727  0.7613853678564936  1.0000
  H   H75       1.0  0.45423514751771865  0.14086463488025347  0.7386146320785519  1.0000
  H   H76       1.0  0.54576485241612  0.3591353652384577  0.2386146319548005  1.0000
  H   H77       1.0  0.6003679521583893  0.8762719921269194  0.36787854944931747  1.0000
  H   H78       1.0  0.3996320477249309  0.6237280077462869  0.8678785495730689  1.0000
  H   H79       1.0  0.3996320474720528  0.12372800727056775  0.6321214503619765  1.0000
  H   H80       1.0  0.600367952461786  0.3762719928481434  0.13212145067443387  1.0000
  H   H81       1.0  0.519578597075575  0.022959701658520713  0.4337464768515994  1.0000
  H   H82       1.0  0.48042140285826385  0.4770402984601904  0.9337464769753507  1.0000
  H   H83       1.0  0.4804214031111419  0.9770402989359095  0.5662535229596947  1.0000
  H   H84       1.0  0.5195785967721782  0.5229597009372967  0.06625352283594328  1.0000
  H   H85       1.0  0.3325708551628086  0.22471437509045555  0.37897840280095707  1.0000
  H   H86       1.0  0.6674291447710301  0.27528562502825554  0.8789784029247085  1.0000
  H   H87       1.0  0.6674291450239084  0.7752856255039747  0.621021597010337  1.0000
  H   H88       1.0  0.3325708548594119  0.7247143743692316  0.12102159688658559  1.0000
  C   C1        1.0  0.9904145765042711  0.11759984407084785  0.40470788439870337  1.0000
  C   C2        1.0  0.009585423429567723  0.3824001560478633  0.9047078840862459  1.0000
  C   C3        1.0  0.009585423682445908  0.8824001565235825  0.5952921158487995  1.0000
  C   C4        1.0  0.9904145762008745  0.6175998433496239  0.09529211572504803  1.0000
  C   C5        1.0  0.955607677126835  0.9832396011763074  0.3701854205765218  1.0000
  C   C6        1.0  0.04439232275648522  0.5167603986968988  0.8701854207002732  1.0000
  C   C7        1.0  0.044392323059881944  0.01676039941812281  0.6298145792347722  1.0000
  C   C8        1.0  0.9556076768739568  0.4832396007005883  0.12981457911102087  1.0000
  C   C9        1.0  0.8427137826483787  0.8318745091627567  0.3866006335018229  1.0000
  C   C10       1.0  0.15728621723494163  0.6681254907104496  0.8866006336255743  1.0000
  C   C11       1.0  0.15728621698206344  0.16812549023473036  0.6133993663094712  1.0000
  C   C12       1.0  0.8427137829517753  0.33187450988398076  0.11339936618571979  1.0000
  C   C13       1.0  0.7661669855131173  0.815329473384192  0.43888879940024134  1.0000
  C   C14       1.0  0.23383301437020274  0.6846705264890142  0.9388887995239928  1.0000
  C   C15       1.0  0.23383301411732463  0.18467052601329506  0.5611112004110527  1.0000
  C   C16       1.0  0.7661669858165141  0.31532947410541606  0.0611112002873013  1.0000
  C   C17       1.0  0.8007648290576276  0.9463975039802828  0.474193235860998  1.0000
  C   C18       1.0  0.1992351708256926  0.5536024958929235  0.9741932359847494  1.0000
  C   C19       1.0  0.19923517057281448  0.05360249541720441  0.5258067643865049  1.0000
  C   C20       1.0  0.8007648293610243  0.4463975047015067  0.025806764262753423  1.0000
  C   C21       1.0  0.9140189581871295  0.10163543077940314  0.45790163663885636  1.0000
  C   C22       1.0  0.08598104119043443  0.39836456814236476  0.9579016367626076  1.0000
  C   C23       1.0  0.08598104144331262  0.898364568618084  0.5420983631724378  1.0000
  C   C24       1.0  0.9140189584400076  0.6016354312551223  0.04209836348489509  1.0000
  C   C25       1.0  0.1923138507292156  0.41249259804335925  0.4484996123659347  1.0000
  C   C26       1.0  0.8076861486483483  0.08750740087840866  0.9484996120534774  1.0000
  C   C27       1.0  0.8076861489012265  0.5875074013541279  0.5515003878815681  1.0000
  C   C28       1.0  0.19231385098209378  0.9124925985190785  0.05150038775781669  1.0000
  C   C29       1.0  0.33991594206414194  0.5399917739962125  0.45341112029804365  1.0000
  C   C30       1.0  0.6600840578191783  0.9600082258769939  0.953411120421795  1.0000
  C   C31       1.0  0.6600840575663002  0.4600082254012747  0.5465888795132504  1.0000
  C   C32       1.0  0.33991594236753864  0.03999177471743644  0.04658887938949904  1.0000
  C   C33       1.0  0.3883778907325521  0.6303883857808672  0.5041023923288778  1.0000
  C   C34       1.0  0.6116221091507681  0.8696116140923391  0.004102392641335114  1.0000
  C   C35       1.0  0.6116221088978899  0.3696116136166198  0.4958976074824163  1.0000
  C   C36       1.0  0.388377890479674  0.13038838530514807  0.9958976076061676  1.0000
  C   C37       1.0  0.2866150840383077  0.5932623197851212  0.5499343156506362  1.0000
  C   C38       1.0  0.7133849158450125  0.9067376800880851  0.049934315963093515  1.0000
  C   C39       1.0  0.7133849161484093  0.4067376808093091  0.4500656841606579  1.0000
  C   C40       1.0  0.28661508378542955  0.09326231930940197  0.9500656842844093  1.0000
  C   C41       1.0  0.14088009662804757  0.4654954813522024  0.5463847360072758  1.0000
  C   C42       1.0  0.8591199033057912  0.034504518766508716  0.04638473588352443  1.0000
  C   C43       1.0  0.8591199035586694  0.534504519242228  0.4536152642402269  1.0000
  C   C44       1.0  0.14088009632465087  0.9654954806309785  0.9536152643639784  1.0000
  C   C45       1.0  0.09106810068065616  0.3688489653818237  0.4958853814240493  1.0000
  C   C46       1.0  0.9089318992531824  0.13115103473688738  0.995885381111592  1.0000
  C   C47       1.0  0.908931898949786  0.6311510340156634  0.5041146188234535  1.0000
  C   C48       1.0  0.0910681009335343  0.8688489658575429  0.004114618699702097  1.0000
  C   C49       1.0  0.044092011504782196  0.3999254848249348  0.3404733916333559  1.0000
  C   C50       1.0  0.9559079884290566  0.10007451529377631  0.8404733917571072  1.0000
  C   C51       1.0  0.9559079881256597  0.6000745145725522  0.6595266081779382  1.0000
  C   C52       1.0  0.04409201175766035  0.899925485300654  0.15952660805418675  1.0000
  C   C53       1.0  0.8892576141880678  0.3166299149748493  0.3306631414177077  1.0000
  C   C54       1.0  0.11074238574577097  0.18337008514386183  0.8306631415414591  1.0000
  C   C55       1.0  0.11074238544237425  0.6833700844226378  0.6693368583935864  1.0000
  C   C56       1.0  0.889257614440946  0.8166299154505685  0.1693368587060437  1.0000
  C   C57       1.0  0.8223745781695031  0.3896209187983504  0.3002236244877553  1.0000
  C   C58       1.0  0.17762542176433557  0.11037908132036069  0.8002236246115066  1.0000
  C   C59       1.0  0.1776254214609389  0.6103790805991367  0.6997763753235386  1.0000
  C   C60       1.0  0.8223745784223814  0.8896209192740696  0.19977637563599612  1.0000
  C   C61       1.0  0.9095356817646562  0.5463619766347768  0.2800781647309176  1.0000
  C   C62       1.0  0.09046431811866418  0.9536380232384295  0.7800781644184602  1.0000
  C   C63       1.0  0.09046431786578597  0.45363802276271026  0.7199218355165853  1.0000
  C   C64       1.0  0.909535681511778  0.046361976159057676  0.21992183539283383  1.0000
  C   C65       1.0  0.06419320605461076  0.6306371051941358  0.2901271524223153  1.0000
  C   C66       1.0  0.9358067943849843  0.8693628958760136  0.7901271525460668  1.0000
  C   C67       1.0  0.9358067941321061  0.36936289540029443  0.7098728478251874  1.0000
  C   C68       1.0  0.06419320580173264  0.1306371047184167  0.20987284770143605  1.0000
  C   C69       1.0  0.1316343691100162  0.5579812329637489  0.3201895245903897  1.0000
  C   C70       1.0  0.8683656307733041  0.9420187669094575  0.8201895247141411  1.0000
  C   C71       1.0  0.8683656310767007  0.44201876763068143  0.6798104756571132  1.0000
  C   C72       1.0  0.13163436885713803  0.057981232488029666  0.17981047553336169  1.0000
  C   C73       1.0  0.8437822814288304  0.21176292112159925  0.5405787846855155  1.0000
  C   C74       1.0  0.15621771850500846  0.28823707899711193  0.040578784997972864  1.0000
  C   C75       1.0  0.1562177187578866  0.7882370794728311  0.45942121512577855  1.0000
  C   C76       1.0  0.8437822811254337  0.7117629204003754  0.95942121524953  1.0000
  C   C77       1.0  0.4190233786692153  0.08859795173658096  0.3644494026750359  1.0000
  C   C78       1.0  0.5809766212646235  0.4114020483821302  0.8644494023625786  1.0000
  C   C79       1.0  0.5809766209612268  0.9114020476609062  0.6355505975724668  1.0000
  C   C80       1.0  0.4190233789220934  0.5885979522123002  0.13555059744871545  1.0000
  C   C81       1.0  0.38801256036965803  0.07897439973713029  0.3043857829600086  1.0000
  C   C82       1.0  0.6119874390079059  0.42102559918463767  0.8043857830837601  1.0000
  C   C83       1.0  0.611987439260784  0.9210255996603569  0.6956142168512853  1.0000
  C   C84       1.0  0.3880125606225362  0.5789744002128495  0.19561421716374272  1.0000
  C   C85       1.0  0.4352397776842517  0.9982815267867605  0.26752438274287277  1.0000
  C   C86       1.0  0.5647602221990686  0.5017184730864458  0.7675243828666242  1.0000
  C   C87       1.0  0.5647602219461905  0.0017184726107266316  0.7324756170684213  1.0000
  C   C88       1.0  0.43523977798764835  0.49828152750798443  0.2324756169446699  1.0000
  C   C89       1.0  0.5111468267982257  0.9242686158793356  0.29008587922442153  1.0000
  C   C90       1.0  0.48885317308509457  0.5757313839938707  0.790085879348173  1.0000
  C   C91       1.0  0.4888531733884912  0.07573138471509464  0.7099141205868725  1.0000
  C   C92       1.0  0.5111468265453476  0.4242686154036165  0.2099141204631211  1.0000
  C   C93       1.0  0.5401054924861034  0.9321506582986608  0.34990771061982107  1.0000
  C   C94       1.0  0.45989450739721677  0.5678493415745454  0.8499077103073638  1.0000
  C   C95       1.0  0.4598945077006135  0.06784934229576943  0.6500922896276817  1.0000
  C   C96       1.0  0.5401054922332252  0.43215065782294165  0.15009228950393033  1.0000
  C   C97       1.0  0.4953123678421545  0.01441473392353609  0.38712884999797303  1.0000
  C   C98       1.0  0.5046876315354095  0.48558526499823185  0.8871288496855156  1.0000
  C   C99       1.0  0.5046876317882877  0.9855852654739511  0.6128711502495298  1.0000
  C   C100      1.0  0.4953123680950326  0.5144147343992553  0.11287115012577834  1.0000
  N   N1        1.0  0.9489926555691176  0.2322325329137446  0.49424963793429144  1.0000
  N   N2        1.0  0.051007344364721326  0.2677674672049665  0.9942496380580428  1.0000
  N   N3        1.0  0.05100734461759952  0.7677674676806858  0.5057503623132114  1.0000
  N   N4        1.0  0.9489926552657207  0.7322325321925206  0.005750362189459984  1.0000
  O   O1        1.0  0.25812515473290093  0.3111550188012297  0.34626626977938985  1.0000
  O   O2        1.0  0.741874844644663  0.18884498012053827  0.8462662699031411  1.0000
  O   O3        1.0  0.7418748448975412  0.6888449805962575  0.6537337300319043  1.0000
  O   O4        1.0  0.2581251549857791  0.8111550192769489  0.15373372990815284  1.0000
  O   O5        1.0  0.377655236515983  0.16861293138873792  0.40154772268613126  1.0000
  O   O6        1.0  0.6223447634178558  0.3313870687299732  0.9015477228098826  1.0000
  O   O7        1.0  0.6223447636707339  0.8313870692056924  0.5984522771251628  1.0000
  O   O8        1.0  0.37765523621258623  0.6686129306675138  0.09845227700141145  1.0000
  P   P1        1.0  0.13262421512699588  0.3092700111809741  0.38106865703346815  1.0000
  P   P2        1.0  0.8673757848068429  0.1907299889377371  0.8810686571572195  1.0000
  P   P3        1.0  0.867375785059721  0.6907299894134563  0.6189313432140346  1.0000
  P   P4        1.0  0.13262421482359915  0.8092700104597501  0.11893134309028323  1.0000
