data_image0
_chemical_formula_structural       H36C54O4S2Br2
_chemical_formula_sum              "H36 C54 O4 S2 Br2"
_cell_length_a       8.008859453080484
_cell_length_b       10.067992367939754
_cell_length_c       13.543730416413142
_cell_angle_alpha    80.82155171897949
_cell_angle_beta     87.31593831239142
_cell_angle_gamma    74.51985344148399

_space_group_name_H-M_alt    "P 1"
_space_group_IT_number       1

loop_
  _space_group_symop_operation_xyz
  'x, y, z'

loop_
  _atom_site_type_symbol
  _atom_site_label
  _atom_site_symmetry_multiplicity
  _atom_site_fract_x
  _atom_site_fract_y
  _atom_site_fract_z
  _atom_site_occupancy
  H   H1        1.0  0.628333649392587  0.8396629747152815  0.4925785748119149  1.0000
  H   H2        1.0  0.3716663508620857  0.16033702548180484  0.5074214258282516  1.0000
  H   H3        1.0  0.7922849432517401  0.8968537022370833  0.343467550572121  1.0000
  H   H4        1.0  0.20771505610594582  0.10314629709619855  0.6565324493142918  1.0000
  H   H5        1.0  0.9786545887304196  0.46008760748809674  0.3148483370906139  1.0000
  H   H6        1.0  0.021345410627266328  0.5399123918451851  0.6851516627957989  1.0000
  H   H7        1.0  0.880524053543021  0.28568029726010397  0.4308078314165784  1.0000
  H   H8        1.0  0.11947594547786569  0.7143197031039469  0.5691921684690779  1.0000
  H   H9        1.0  0.7141792702465746  0.22020906878721103  0.5840322319424045  1.0000
  H   H10       1.0  0.2858207303620836  0.7797909305372511  0.41596776795061535  1.0000
  H   H11       1.0  0.33642274447242065  0.3427453479728987  0.8175534713580721  1.0000
  H   H12       1.0  0.6635772561362374  0.6572546513515637  0.18244652853494775  1.0000
  H   H13       1.0  0.1769034739779222  0.33195446357183045  0.9783775757994739  1.0000
  H   H14       1.0  0.8230965253797635  0.6680455357614515  0.021622424086938947  1.0000
  H   H15       1.0  0.14268889303411456  0.5219955794507041  0.08197580815222315  1.0000
  H   H16       1.0  0.8573111075745435  0.4780044198737582  0.9180241917407966  1.0000
  H   H17       1.0  0.2831291136573935  0.7139808894883366  0.02752276255514169  1.0000
  H   H18       1.0  0.7168708853463069  0.28601911071756947  0.9724772380784178  1.0000
  H   H19       1.0  0.4456267423353024  0.7234202114935487  0.8695295724860304  1.0000
  H   H20       1.0  0.5543732582733557  0.27657978783091347  0.13047042740698944  1.0000
  H   H21       1.0  0.6578365170635806  0.012300088962232673  0.5745270343353169  1.0000
  H   H22       1.0  0.34216348320827833  0.9876999113929986  0.4254729655569464  1.0000
  H   H23       1.0  0.9523678860505583  0.04147142401010945  0.6024214805295977  1.0000
  H   H24       1.0  0.04763211422130073  0.9585285763451217  0.39757851936266564  1.0000
  H   H25       1.0  0.13650194691843792  0.8892954936250066  0.7404361809404904  1.0000
  H   H26       1.0  0.863498053336235  0.11070450657207977  0.25956381969967607  1.0000
  H   H27       1.0  0.03357866788518355  0.7039340021532438  0.8491271182398893  1.0000
  H   H28       1.0  0.9664213323866755  0.29606599820198737  0.1508728816523742  1.0000
  H   H29       1.0  0.7451086510408155  0.6694178311384678  0.8188052491437948  1.0000
  H   H30       1.0  0.2548913492138572  0.33058216905861865  0.18119475149637168  1.0000
  H   H31       1.0  0.6826517453882178  0.05094125333765622  0.8521485945270453  1.0000
  H   H32       1.0  0.3173482536326689  0.9490587470263946  0.14785140535861113  1.0000
  H   H33       1.0  0.3713456065946639  0.06596905307430016  0.829777198795734  1.0000
  H   H34       1.0  0.6286543936771951  0.934030947280931  0.1702228010965295  1.0000
  H   H35       1.0  0.18884878367850141  0.014675651853768241  0.9768334261805306  1.0000
  H   H36       1.0  0.8111512156791844  0.9853243474795136  0.023166573705882237  1.0000
  C   C1        1.0  0.5361850739082855  0.6407069180026014  0.6666536507868267  1.0000
  C   C2        1.0  0.4638149267003726  0.35929308132186083  0.33334634910619304  1.0000
  C   C3        1.0  0.6315353488630098  0.5735578342984213  0.5866539215218024  1.0000
  C   C4        1.0  0.36846465174564813  0.42644216502604093  0.4133460783712174  1.0000
  C   C5        1.0  0.715403223512476  0.6153293623027923  0.4961735740743075  1.0000
  C   C6        1.0  0.28459677675938316  0.38467063805243873  0.5038264258179559  1.0000
  C   C7        1.0  0.7089222393441865  0.7552734957429479  0.4569623767758162  1.0000
  C   C8        1.0  0.29107776126447155  0.24472650358151446  0.5430376231172036  1.0000
  C   C9        1.0  0.7989455122703656  0.7882028414672311  0.37132296404297976  1.0000
  C   C10       1.0  0.20105448800149334  0.21179715888799994  0.6286770358492838  1.0000
  C   C11       1.0  0.8985056932096449  0.6805050235553332  0.3221364557958028  1.0000
  C   C12       1.0  0.10149430706221421  0.319494976799898  0.6778635440964605  1.0000
  C   C13       1.0  0.9036563097506086  0.5426230870963996  0.3546569271067259  1.0000
  C   C14       1.0  0.0963436905212503  0.4573769132588315  0.6453430727855375  1.0000
  C   C15       1.0  0.8102464586424415  0.5066358918868915  0.44201698485915375  1.0000
  C   C16       1.0  0.1897535419662166  0.4933641074375707  0.557983015033866  1.0000
  C   C17       1.0  0.8096223678458938  0.36475388295864153  0.4747021865999817  1.0000
  C   C18       1.0  0.1903776324259653  0.6352461173965896  0.5252978132922816  1.0000
  C   C19       1.0  0.7201307646247013  0.3268597283619249  0.5591161949316712  1.0000
  C   C20       1.0  0.27986923439618555  0.6731402720021259  0.44088380495398516  1.0000
  C   C21       1.0  0.6354455363901234  0.4329221786283025  0.6133086983080138  1.0000
  C   C22       1.0  0.36455446421853466  0.5670778206961598  0.38669130158500603  1.0000
  C   C23       1.0  0.4895348249723598  0.5382793199116359  0.7350549630515166  1.0000
  C   C24       1.0  0.5104651752994992  0.46172068044359504  0.2649450368407468  1.0000
  C   C25       1.0  0.3977160599739775  0.5358026042523832  0.8300870103338752  1.0000
  C   C26       1.0  0.6022839390469092  0.4641973961116676  0.16991298955178102  1.0000
  C   C27       1.0  0.3236212257798653  0.4242596118825397  0.863394725690653  1.0000
  C   C28       1.0  0.6763787744748075  0.5757403883145467  0.13660527494951352  1.0000
  C   C29       1.0  0.23352040335599494  0.4188247847976821  0.9535765714603267  1.0000
  C   C30       1.0  0.766479596915864  0.581175215557549  0.04642342843193671  1.0000
  C   C31       1.0  0.21539046243114177  0.5243189136167872  0.011990121630019753  1.0000
  C   C32       1.0  0.7846095378407172  0.4756810867384439  0.9880098782622436  1.0000
  C   C33       1.0  0.2915468500822489  0.6337575539529697  0.9808051932412722  1.0000
  C   C34       1.0  0.708453148938638  0.36624244641108095  0.019194806644384114  1.0000
  C   C35       1.0  0.3832424978813591  0.6394285246538065  0.8910809760942788  1.0000
  C   C36       1.0  0.6167575023904999  0.3605714757014246  0.10891902379798449  1.0000
  C   C37       1.0  0.6860591017219181  0.8396134033797528  0.6954287760484612  1.0000
  C   C38       1.0  0.313940898549941  0.16038659697547844  0.3045712238438023  1.0000
  C   C39       1.0  0.7402108360356299  0.9460188737093839  0.6348873410958543  1.0000
  C   C40       1.0  0.25978916423622905  0.05398112664584721  0.365112658796409  1.0000
  C   C41       1.0  0.9048112317921103  0.9618027153880514  0.6507575705218737  1.0000
  C   C42       1.0  0.09518876847974861  0.038197284967179806  0.34924242937038974  1.0000
  C   C43       1.0  0.009182081209041506  0.8757489416223521  0.7279004479915306  1.0000
  C   C44       1.0  0.9908179190628177  0.1242510587328791  0.2720995519007327  1.0000
  C   C45       1.0  0.9515211046178579  0.7712736917104194  0.7891921564192426  1.0000
  C   C46       1.0  0.048478895654001146  0.22872630864481186  0.2108078434730208  1.0000
  C   C47       1.0  0.7895546541999714  0.752487631170615  0.7727290915633934  1.0000
  C   C48       1.0  0.2104453448209154  0.2475123691934359  0.22727090832226293  1.0000
  C   C49       1.0  0.602796339592856  0.028824081313604505  0.9169796923461037  1.0000
  C   C50       1.0  0.397203660679003  0.9711759190416265  0.08302030754615977  1.0000
  C   C51       1.0  0.42805005198661106  0.03648254988486649  0.9043483196340424  1.0000
  C   C52       1.0  0.5719499482852479  0.9635174504703646  0.09565168025822093  1.0000
  C   C53       1.0  0.3254056003924339  0.007761878251196271  0.9871961862632084  1.0000
  C   C54       1.0  0.6745944002162242  0.992238121073266  0.012803813629811542  1.0000
  O   O1        1.0  0.5490794872622954  0.41115671312708246  0.7019220757114387  1.0000
  O   O2        1.0  0.4509205120953906  0.5888432862061994  0.2980779241749742  1.0000
  O   O3        1.0  0.39673892349653694  0.9060698029553541  0.5845610071991583  1.0000
  O   O4        1.0  0.6032610770949351  0.09393019621096318  0.4154389934417646  1.0000
  S   S1        1.0  0.4716545379530648  0.818913940496513  0.6805822927019  1.0000
  S   S2        1.0  0.528345462301608  0.18108605970057337  0.31941770793826646  1.0000
  Br  Br1       1.0  0.027245895625953323  0.7313601031721528  0.20669246600039845  1.0000
  Br  Br2       1.0  0.9727541049827049  0.2686398961523095  0.7933075338926214  1.0000
