data_image0
_chemical_formula_structural       H30C34N14O12
_chemical_formula_sum              "H30 C34 N14 O12"
_cell_length_a       3.5983596885249645
_cell_length_b       36.22769760207183
_cell_length_c       6.54922724038572
_cell_angle_alpha    90.0
_cell_angle_beta     94.79872355348162
_cell_angle_gamma    90.0

_space_group_name_H-M_alt    "P 1"
_space_group_IT_number       1

loop_
  _space_group_symop_operation_xyz
  'x, y, z'

loop_
  _atom_site_type_symbol
  _atom_site_label
  _atom_site_symmetry_multiplicity
  _atom_site_fract_x
  _atom_site_fract_y
  _atom_site_fract_z
  _atom_site_occupancy
  H   H1        1.0  0.3831320641296646  0.6928715223835944  0.5213387981061286  1.0000
  H   H2        1.0  0.6168679356708706  0.1928715224121889  0.47866120202048706  1.0000
  H   H3        1.0  0.36126843656974994  0.6262306983787608  0.4234544752147215  1.0000
  H   H4        1.0  0.6387315632307854  0.12623069840735535  0.5765455249118943  1.0000
  H   H5        1.0  0.7389847917486608  0.6527031499414888  0.8560725061145231  1.0000
  H   H6        1.0  0.26101521084068774  0.15270314997008327  0.14392749414353598  1.0000
  H   H7        1.0  0.678638041989884  0.7696688803211545  0.10338081477424066  1.0000
  H   H8        1.0  0.3213619578106513  0.2696688800737172  0.8966191853523751  1.0000
  H   H9        1.0  0.9038314978726203  0.7824548488110071  0.8816571237509911  1.0000
  H   H10       1.0  0.09616850192791503  0.28245484883960176  0.11834287637562445  1.0000
  H   H11       1.0  0.64616082296134  0.8379849943393542  0.9634588748647507  1.0000
  H   H12       1.0  0.35383917683919536  0.3379849943679488  0.036541125261865114  1.0000
  H   H13       1.0  0.5990412523783877  0.9053973404626237  0.04217828700521923  1.0000
  H   H14       1.0  0.4009587474221477  0.40539734049121817  0.9578217131213965  1.0000
  H   H15       1.0  0.22311874708046403  0.8803373038030463  0.6088193011806424  1.0000
  H   H16       1.0  0.7768812527200714  0.3803373038316409  0.39118069894597324  1.0000
  H   H17       1.0  0.13656968182702123  0.7495157994375865  0.6030548238742606  1.0000
  H   H18       1.0  0.8634303179735141  0.24951579919014907  0.39694517625235504  1.0000
  H   H19       1.0  0.360906105470211  0.7628998202861063  0.3830458669824456  1.0000
  H   H20       1.0  0.6390938943303244  0.26289982031470077  0.6169541331441701  1.0000
  H   H21       1.0  0.30637414757238174  0.45308604787131945  0.5929467416288341  1.0000
  H   H22       1.0  0.6936258522281536  0.9530860478427249  0.4070532584977816  1.0000
  H   H23       1.0  0.3995719908236213  0.505743368547721  0.8392807012349451  1.0000
  H   H24       1.0  0.6004280089769141  0.005743368576315507  0.1607192988916706  1.0000
  H   H25       1.0  0.9001495429468874  0.5800535151535059  0.3829122835212128  1.0000
  H   H26       1.0  0.09985045685364798  0.08005351518210041  0.617087716605403  1.0000
  H   H27       1.0  0.798482372158365  0.5275402930631459  0.1360597636804545  1.0000
  H   H28       1.0  0.20151762764217035  0.027540293091740428  0.8639402364461611  1.0000
  H   H29       1.0  0.4512046797262816  0.5967789089849193  0.021489132301395084  1.0000
  H   H30       1.0  0.5487953200742538  0.09677890901351376  0.9785108678252206  1.0000
  C   C1        1.0  0.6766480345289622  0.6988761937924548  0.06326142743684954  1.0000
  C   C2        1.0  0.32335196527157317  0.1988761938210493  0.9367385726897662  1.0000
  C   C3        1.0  0.4634109887057116  0.6840929457405728  0.3721938361028962  1.0000
  C   C4        1.0  0.5365890110948237  0.18409294576916727  0.6278061640237196  1.0000
  C   C5        1.0  0.4508585079158887  0.6468735042841858  0.3167710125067197  1.0000
  C   C6        1.0  0.5491414918846466  0.14687350431278037  0.6832289876198959  1.0000
  C   C7        1.0  0.6583140037295839  0.6617504682005783  0.0046310214288123415  1.0000
  C   C8        1.0  0.34168599607095146  0.16175046822917283  0.9953689786978033  1.0000
  C   C9        1.0  0.8227091458845305  0.7268453261709379  0.9208476782043515  1.0000
  C   C10       1.0  0.17729085392196045  0.22684532619953235  0.07915232039564365  1.0000
  C   C11       1.0  0.3323591825474336  0.8333479146704992  0.41727649481304746  1.0000
  C   C12       1.0  0.6676408172531018  0.3333479146990937  0.5827235053135682  1.0000
  C   C13       1.0  0.5490388497914231  0.8471678362536849  0.10821565207459893  1.0000
  C   C14       1.0  0.45096115000911224  0.34716783628227943  0.8917843480520168  1.0000
  C   C15       1.0  0.5238470354234833  0.8847764796448697  0.15278553008705065  1.0000
  C   C16       1.0  0.476152964377052  0.38477647967346423  0.8472144700395651  1.0000
  C   C17       1.0  0.316512175267727  0.8710105065632273  0.46341542472345293  1.0000
  C   C18       1.0  0.6834878245328082  0.3710105065918219  0.5365845754031627  1.0000
  C   C19       1.0  0.201455713955158  0.8053104301701893  0.5634228292521335  1.0000
  C   C20       1.0  0.7985442858453774  0.30531043019878384  0.4365771708744823  1.0000
  C   C21       1.0  0.044717890179671545  0.488042524650776  0.3547944187122473  1.0000
  C   C22       1.0  0.9552821096208638  0.9880425246221816  0.6452055814143685  1.0000
  C   C23       1.0  0.21429096328793115  0.4809833818697737  0.5504225121610149  1.0000
  C   C24       1.0  0.785709039307373  0.9809833818411792  0.4495774865704236  1.0000
  C   C25       1.0  0.2669819343141982  0.510504214017242  0.6861839047366056  1.0000
  C   C26       1.0  0.7330180682751504  0.010504214045836494  0.31381609552145345  1.0000
  C   C27       1.0  0.1541286588803259  0.5461254324610605  0.6248466022409358  1.0000
  C   C28       1.0  0.8458713409202093  0.04612543248965499  0.37515339788568  1.0000
  C   C29       1.0  0.9845650420859433  0.5521504330668819  0.426992551995851  1.0000
  C   C30       1.0  0.015434957714592135  0.05215043309547646  0.5730074481307647  1.0000
  C   C31       1.0  0.9278860515703196  0.5231547872066844  0.2899999653423313  1.0000
  C   C32       1.0  0.0721139482361714  0.023154787235278987  0.7100000332576639  1.0000
  C   C33       1.0  0.21457794543972294  0.5790365965404419  0.7608452670093214  1.0000
  C   C34       1.0  0.7854220543608125  0.07903659656903644  0.23915473311729435  1.0000
  N   N1        1.0  0.5711357515589668  0.7101727866506383  0.24476694363415366  1.0000
  N   N2        1.0  0.42886424824752417  0.2101727866792329  0.7552330549658415  1.0000
  N   N3        1.0  0.5414597820401759  0.6359212093203097  0.13139447375818186  1.0000
  N   N4        1.0  0.4585402205491727  0.1359212093489042  0.8686055264998772  1.0000
  N   N5        1.0  0.8040480120316368  0.7620658542325122  0.9756761196259208  1.0000
  N   N6        1.0  0.19595198776889858  0.2620658542611067  0.02432388050069491  1.0000
  N   N7        1.0  0.4549018851387718  0.821318727367824  0.24060296550665822  1.0000
  N   N8        1.0  0.5450981146617636  0.3213187273964184  0.7593970346199574  1.0000
  N   N9        1.0  0.41210684780544216  0.8968515428963357  0.331073022815411  1.0000
  N   N10       1.0  0.5878931519950931  0.39685154292493025  0.6689269773112048  1.0000
  N   N11       1.0  0.23758098642586778  0.7699773031782384  0.5118430881850606  1.0000
  N   N12       1.0  0.7624190133746676  0.26997730320683294  0.4881569119415551  1.0000
  N   N13       1.0  0.9865334431981811  0.4574770693970954  0.20858584944497413  1.0000
  N   N14       1.0  0.013466556602354149  0.9574770693685009  0.7914141506816417  1.0000
  O   O1        1.0  0.9614880459577051  0.7155355182858083  0.7622594577972952  1.0000
  O   O2        1.0  0.03851195384283021  0.21553551831440282  0.2377405423293206  1.0000
  O   O3        1.0  0.05794867313766513  0.8158850207557663  0.7219320948279396  1.0000
  O   O4        1.0  0.9420513294516835  0.315885020508329  0.27806790543011956  1.0000
  O   O5        1.0  0.7912335624443788  0.4633917546844029  0.0460949855983342  1.0000
  O   O6        1.0  0.20876643735615646  0.9633917546558084  0.9539050145282816  1.0000
  O   O7        1.0  0.13586507861196612  0.42737575404500866  0.2539493757923621  1.0000
  O   O8        1.0  0.8641349211885693  0.9273757540164143  0.7460506243342537  1.0000
  O   O9        1.0  0.4021786916333932  0.5721564171059712  0.9407428580585672  1.0000
  O   O10       1.0  0.5978213081671422  0.0721564168585338  0.059257142068048586  1.0000
  O   O11       1.0  0.10238382185462219  0.6100385752567423  0.7058433824199121  1.0000
  O   O12       1.0  0.8976161779459131  0.1100385752853369  0.29415661770670365  1.0000
