data_image0
_chemical_formula_structural       H72C96N8O16S8
_chemical_formula_sum              "H72 C96 N8 O16 S8"
_cell_length_a       9.130892775257212
_cell_length_b       13.069223929197754
_cell_length_c       17.31985453844645
_cell_angle_alpha    90.0
_cell_angle_beta     94.94309003509723
_cell_angle_gamma    90.0

_space_group_name_H-M_alt    "P 1"
_space_group_IT_number       1

loop_
  _space_group_symop_operation_xyz
  'x, y, z'

loop_
  _atom_site_type_symbol
  _atom_site_label
  _atom_site_symmetry_multiplicity
  _atom_site_fract_x
  _atom_site_fract_y
  _atom_site_fract_z
  _atom_site_occupancy
  H   H1        1.0  0.47797772646288905  0.4049212959139225  0.1122939490896957  1.0000
  H   H2        1.0  0.4779777257956164  0.09507870449934792  0.6122939489693321  1.0000
  H   H3        1.0  0.5220222741707563  0.595078704147462  0.8877060510958569  1.0000
  H   H4        1.0  0.5220222737388729  0.9049212955620365  0.3877060511746573  1.0000
  H   H5        1.0  0.6818325914373987  0.5275735481581303  0.15402624350622746  1.0000
  H   H6        1.0  0.6818325907701259  0.9724264523165245  0.6540262433858637  1.0000
  H   H7        1.0  0.31816740919624675  0.47242645190325405  0.8459737566793251  1.0000
  H   H8        1.0  0.3181674087643632  0.027573547744859917  0.3459737567581255  1.0000
  H   H9        1.0  0.8847786371642414  0.5511660821655361  0.0691451556427206  1.0000
  H   H10       1.0  0.8847786375961249  0.9488339183091186  0.5691451555639202  1.0000
  H   H11       1.0  0.11522136237024784  0.44883391789584826  0.9308548445012687  1.0000
  H   H12       1.0  0.11522136303752051  0.051166081752265745  0.4308548446216323  1.0000
  H   H13       1.0  0.8876850555428851  0.4530984037063245  0.947036254506467  1.0000
  H   H14       1.0  0.8876850551110014  0.04690159594178953  0.4470362545852674  1.0000
  H   H15       1.0  0.11231494509076036  0.54690159635506  0.05296374567908549  1.0000
  H   H16       1.0  0.11231494442348773  0.9530984041195948  0.5529637455587217  1.0000
  H   H17       1.0  0.6160242673417509  0.4732668736497559  0.8219409466382657  1.0000
  H   H18       1.0  0.6160242669098673  0.026733126763514452  0.32194094671706613  1.0000
  H   H19       1.0  0.38397573219273845  0.5267331264116285  0.17805905350572354  1.0000
  H   H20       1.0  0.3839757326246219  0.97326687329787  0.6780590534269231  1.0000
  H   H21       1.0  0.5538907681447635  0.6418077137128745  0.7640984837545631  1.0000
  H   H22       1.0  0.5538907677128799  0.8581922867617803  0.2640984838333635  1.0000
  H   H23       1.0  0.4461092313897258  0.35819228634850997  0.23590151638942616  1.0000
  H   H24       1.0  0.4461092318216093  0.14180771329960407  0.7359015163106257  1.0000
  H   H25       1.0  0.7420617014430729  0.7402133931141414  0.6970520877575999  1.0000
  H   H26       1.0  0.7420617010111894  0.7597866073605134  0.19705208783640024  1.0000
  H   H27       1.0  0.25793829917464206  0.25978660694724304  0.3029479118499176  1.0000
  H   H28       1.0  0.25793829852329986  0.24021339270087097  0.8029479123075891  1.0000
  H   H29       1.0  0.9882424188765122  0.662966455922671  0.6877493571543899  1.0000
  H   H30       1.0  0.9882424195437848  0.8370335437868274  0.18774935727475356  1.0000
  H   H31       1.0  0.011757580642046688  0.33703354413871334  0.3122506424115643  1.0000
  H   H32       1.0  0.011757581089860665  0.16296645627455703  0.812250642910799  1.0000
  H   H33       1.0  0.26871918344398865  0.49633507353930406  0.679901399125096  1.0000
  H   H34       1.0  0.2687191830121052  0.003664926873966278  0.1799013992038964  1.0000
  H   H35       1.0  0.7312808171896568  0.5036649265220803  0.32009860106045657  1.0000
  H   H36       1.0  0.7312808165223841  0.9963350731874182  0.8200986009400929  1.0000
  H   H37       1.0  0.24486326188626317  0.2508974203643691  0.020531364206778063  1.0000
  H   H38       1.0  0.24486326233407715  0.24910258004890132  0.5205313647060127  1.0000
  H   H39       1.0  0.7551367376322957  0.7491025796970153  0.9794686353591762  1.0000
  H   H40       1.0  0.7551367382995683  0.750897420012483  0.4794686354795398  1.0000
  H   H41       1.0  0.11623180778107602  0.20531578191152117  0.6305995825187273  1.0000
  H   H42       1.0  0.11623180844834867  0.2946842177365928  0.13059958263909108  1.0000
  H   H43       1.0  0.8837681917534131  0.7946842181498632  0.3694004176252619  1.0000
  H   H44       1.0  0.8837681921852968  0.7053157823247915  0.8694004175464615  1.0000
  H   H45       1.0  0.040649489908626074  0.3819587954911126  0.4323154825272055  1.0000
  H   H46       1.0  0.040649490340509596  0.1180412041570014  0.9323154824484051  1.0000
  H   H47       1.0  0.9593505096258632  0.6180412045702718  0.5676845176167837  1.0000
  H   H48       1.0  0.9593505102931358  0.881958795904383  0.06768451773714748  1.0000
  H   H49       1.0  0.8790675053712614  0.2575461089529755  0.6789853933830649  1.0000
  H   H50       1.0  0.8790675049393778  0.24245389146029483  0.17898539346186526  1.0000
  H   H51       1.0  0.12093249416322789  0.7424538911084089  0.32101460676092447  1.0000
  H   H52       1.0  0.1209324945951114  0.7575461086010896  0.8210146066821241  1.0000
  H   H53       1.0  0.7995182800108733  0.4403562423582465  0.4709322645091518  1.0000
  H   H54       1.0  0.7995182793436008  0.05964375728986755  0.9709322643887882  1.0000
  H   H55       1.0  0.20048172062277206  0.5596437577031379  0.5290677356764006  1.0000
  H   H56       1.0  0.20048172019088856  0.9403562427715169  0.0290677357552011  1.0000
  H   H57       1.0  0.6797678485312292  0.5396696015164956  0.5504327495909748  1.0000
  H   H58       1.0  0.6797678491825715  0.9603303981930028  0.050432749133303305  1.0000
  H   H59       1.0  0.3202321510032601  0.46033039854488883  0.44956725055301455  1.0000
  H   H60       1.0  0.32023215143514355  0.039669601868381546  0.9495672504742142  1.0000
  H   H61       1.0  0.6362573906092223  0.25325858504921767  0.6716942550614817  1.0000
  H   H62       1.0  0.6362573912764949  0.24674141459889637  0.1716942551818454  1.0000
  H   H63       1.0  0.3637426089093366  0.7467414150121667  0.3283057445044725  1.0000
  H   H64       1.0  0.3637426093571505  0.7532585846973318  0.8283057450037071  1.0000
  H   H65       1.0  0.3976425626126192  0.31982955932537777  0.713473681701578  1.0000
  H   H66       1.0  0.39764256327989184  0.18017044032273621  0.21347368182194176  1.0000
  H   H67       1.0  0.60235743692187  0.6801704407360066  0.2865263184424112  1.0000
  H   H68       1.0  0.6023574373537537  0.8198295597386482  0.7865263183636108  1.0000
  H   H69       1.0  0.44417507255978766  0.5932702333363378  0.5971514270807825  1.0000
  H   H70       1.0  0.4441750721279042  0.9067297663731606  0.09715142715958287  1.0000
  H   H71       1.0  0.5558249280738577  0.4067297667250466  0.40284857310477007  1.0000
  H   H72       1.0  0.5558249274065851  0.09327023292306734  0.9028485729844064  1.0000
  C   C1        1.0  0.44330759119693514  0.2919726014851621  0.9864909220784657  1.0000
  C   C2        1.0  0.44330759186420776  0.2080273989281083  0.48649092219882933  1.0000
  C   C3        1.0  0.5566924083375542  0.7080273985762223  0.01350907806552356  1.0000
  C   C4        1.0  0.5566924087694377  0.791972601133276  0.5135090779867232  1.0000
  C   C5        1.0  0.5698891258112231  0.3596916477571259  0.008894804192597623  1.0000
  C   C6        1.0  0.5698891251439505  0.14030835189098806  0.5088948040722339  1.0000
  C   C7        1.0  0.4301108748224223  0.6403083523042584  0.991105195992955  1.0000
  C   C8        1.0  0.4301108743905388  0.8596916481703963  0.4911051960717553  1.0000
  C   C9        1.0  0.5708952614369645  0.4156236712621261  0.07801939813097448  1.0000
  C   C10       1.0  0.5708952618688478  0.08437632915114422  0.5780193980521741  1.0000
  C   C11       1.0  0.4291047380975249  0.5843763287992583  0.9219806020130148  1.0000
  C   C12       1.0  0.4291047376656414  0.9156236709102402  0.4219806020918152  1.0000
  C   C13       1.0  0.6832133947280489  0.48337848017788065  0.10080660820753928  1.0000
  C   C14       1.0  0.6832133951599324  0.01662152023538972  0.6008066081287389  1.0000
  C   C15       1.0  0.3167866048064404  0.5166215198835037  0.89919339193645  1.0000
  C   C16       1.0  0.3167866043586265  0.9833784798259947  0.3991933914372153  1.0000
  C   C17       1.0  0.7973719678946752  0.49629952666961114  0.052904753045374314  1.0000
  C   C18       1.0  0.7973719672433331  0.0037004729785029165  0.5529047535030457  1.0000
  C   C19       1.0  0.20262803272303967  0.503700472626617  0.9470952465621431  1.0000
  C   C20       1.0  0.20262803229115617  0.9962995270828815  0.4470952466409435  1.0000
  C   C21       1.0  0.7987865195142246  0.4414838754969729  0.9840539453171367  1.0000
  C   C22       1.0  0.7987865201814972  0.05851612415114111  0.4840539454375006  1.0000
  C   C23       1.0  0.20121348002026468  0.5585161245644115  0.01594605482685239  1.0000
  C   C24       1.0  0.20121348045214818  0.9414838759102433  0.515946054748052  1.0000
  C   C25       1.0  0.686702278835791  0.3718620184586833  0.9609869256236834  1.0000
  C   C26       1.0  0.6867022794871334  0.12813798118943073  0.460986925166012  1.0000
  C   C27       1.0  0.31329772069869816  0.6281379816027011  0.0390130745203059  1.0000
  C   C28       1.0  0.3132977211305817  0.8718620188719537  0.5390130744415055  1.0000
  C   C29       1.0  0.8353535465390588  0.47013719737964316  0.7861938325397697  1.0000
  C   C30       1.0  0.8353535460912448  0.029862802268470833  0.28619383204053495  1.0000
  C   C31       1.0  0.16464645409458664  0.5298628026817412  0.2138061676457829  1.0000
  C   C32       1.0  0.16464645342731402  0.9701371977929136  0.7138061675254191  1.0000
  C   C33       1.0  0.6978813049081537  0.5152530828518262  0.7925281899057011  1.0000
  C   C34       1.0  0.6978813044762701  0.9847469176228285  0.2925281899845016  1.0000
  C   C35       1.0  0.30211869570956135  0.48474691720955815  0.20747180970181625  1.0000
  C   C36       1.0  0.3021186950582192  0.015253082438555839  0.7074718101594876  1.0000
  C   C37       1.0  0.6637768123335327  0.6105784003113208  0.7600385099941859  1.0000
  C   C38       1.0  0.6637768130008054  0.8894216001633339  0.26003851011454954  1.0000
  C   C39       1.0  0.33622318720095656  0.3894215997500635  0.23996149014980342  1.0000
  C   C40       1.0  0.33622318763284004  0.1105783998980505  0.739961490071003  1.0000
  C   C41       1.0  0.7674504567428863  0.6654512706428052  0.7221302427870446  1.0000
  C   C42       1.0  0.7674504574101589  0.8345487290666932  0.22213024290740835  1.0000
  C   C43       1.0  0.23254954279160306  0.3345487294185792  0.2778697573569446  1.0000
  C   C44       1.0  0.23254954322348656  0.16545127099469115  0.7778697572781441  1.0000
  C   C45       1.0  0.9043474298754779  0.6216656898692169  0.7160236236815309  1.0000
  C   C46       1.0  0.9043474305427505  0.8783343098402814  0.21602362380189474  1.0000
  C   C47       1.0  0.0956525696590114  0.3783343101921674  0.2839763764624582  1.0000
  C   C48       1.0  0.09565257009089491  0.12166569022110296  0.7839763763836577  1.0000
  C   C49       1.0  0.93993613296249  0.5241689611496704  0.7461169683706735  1.0000
  C   C50       1.0  0.9399361336138323  0.975831038559828  0.24611696791300217  1.0000
  C   C51       1.0  0.060063866571999164  0.475831038911714  0.2538830317733157  1.0000
  C   C52       1.0  0.060063867003882686  0.024168961501556386  0.7538830316945152  1.0000
  C   C53       1.0  0.0847237760798285  0.4786198625019635  0.7339439431854039  1.0000
  C   C54       1.0  0.08472377564794499  0.021380137911306885  0.23394394326420423  1.0000
  C   C55       1.0  0.9152762245378865  0.5213801375594209  0.26605605642211366  1.0000
  C   C56       1.0  0.9152762238865443  0.9786198621500775  0.7660560568797851  1.0000
  C   C57       1.0  0.04180203257991067  0.2567555157198979  0.5966954986541144  1.0000
  C   C58       1.0  0.04180203214802715  0.24324448392821607  0.09669549873291483  1.0000
  C   C59       1.0  0.9581979680378043  0.7432444843414865  0.40330450095340303  1.0000
  C   C60       1.0  0.958197967386462  0.7567555161331684  0.9033045014110744  1.0000
  C   C61       1.0  0.0009544962743624213  0.35591861576477973  0.48659353964275487  1.0000
  C   C62       1.0  0.0009544956070897744  0.14408138464849066  0.9865935395223911  1.0000
  C   C63       1.0  0.9990455043592832  0.6440813842966047  0.5134064605427977  1.0000
  C   C64       1.0  0.9990455039114692  0.8559186154128938  0.01340646004356303  1.0000
  C   C65       1.0  0.9083941999267345  0.2853783170450997  0.6230634327190111  1.0000
  C   C66       1.0  0.9083942005940072  0.21462168260301434  0.12306343283937474  1.0000
  C   C67       1.0  0.0916057996077547  0.7146216830162847  0.3769365674249782  1.0000
  C   C68       1.0  0.09160580003963821  0.7853783174583701  0.8769365673461779  1.0000
  C   C69       1.0  0.86616187399075  0.3889064750543301  0.5088325923951915  1.0000
  C   C70       1.0  0.8661618746580225  0.11109352459378391  0.008832592515555229  1.0000
  C   C71       1.0  0.13383812554373936  0.6110935250070544  0.4911674077487977  1.0000
  C   C72       1.0  0.13383812597562292  0.8889064754676005  0.9911674076699972  1.0000
  C   C73       1.0  0.8177579556711507  0.35416824786811424  0.5789905871984081  1.0000
  C   C74       1.0  0.8177579552392672  0.14583175254515615  0.07899058727720853  1.0000
  C   C75       1.0  0.18224204496249471  0.6458317521932702  0.4210094129871444  1.0000
  C   C76       1.0  0.18224204429522206  0.8541682475162282  0.9210094128667807  1.0000
  C   C77       1.0  0.6775476692344179  0.389880739484183  0.6058239063193499  1.0000
  C   C78       1.0  0.6775476687866041  0.110119260163931  0.10582390582011533  1.0000
  C   C79       1.0  0.3224523313992275  0.6101192605772013  0.39417609386620256  1.0000
  C   C80       1.0  0.32245233073195484  0.8898807398974534  0.8941760937458388  1.0000
  C   C81       1.0  0.620628126878075  0.4865143855860387  0.5848834105123673  1.0000
  C   C82       1.0  0.6206281275453476  0.013485614827231656  0.08488341063273099  1.0000
  C   C83       1.0  0.3793718726564143  0.5134856144753457  0.41511658963162196  1.0000
  C   C84       1.0  0.3793718730882978  0.9865143852341528  0.9151165895528215  1.0000
  C   C85       1.0  0.5971063177756237  0.3290659907044681  0.6539615901649507  1.0000
  C   C86       1.0  0.5971063173437401  0.1709340097088023  0.15396159024375108  1.0000
  C   C87       1.0  0.4028936828580218  0.6709340093569164  0.34603841002060187  1.0000
  C   C88       1.0  0.4028936821907491  0.8290659903525821  0.8460384099002382  1.0000
  C   C89       1.0  0.4644899470998127  0.3649836551765937  0.6769323942255482  1.0000
  C   C90       1.0  0.4644899466679291  0.1350163452366767  0.1769323943043486  1.0000
  C   C91       1.0  0.5355100535179024  0.6350163448847906  0.32306760538196927  1.0000
  C   C92       1.0  0.5355100528665602  0.8649836548247076  0.8230676058396407  1.0000
  C   C93       1.0  0.4879216544042369  0.5172225372080635  0.6110280789013727  1.0000
  C   C94       1.0  0.4879216539723534  0.9827774625014347  0.11102807898017308  1.0000
  C   C95       1.0  0.5120783462294086  0.4827774628533208  0.3889719212841799  1.0000
  C   C96       1.0  0.5120783455621359  0.01722253755994957  0.8889719211638163  1.0000
  N   N1        1.0  0.088243916259386  0.291479760438525  0.5298482119297764  1.0000
  N   N2        1.0  0.08824391691072819  0.20852023920958898  0.029848211472104914  1.0000
  N   N3        1.0  0.9117560832751032  0.7085202396228593  0.47015178821421294  1.0000
  N   N4        1.0  0.9117560837069868  0.7914797608517955  0.9701517881354125  1.0000
  N   N5        1.0  0.41031570129881434  0.45722026436858243  0.6554877376916685  1.0000
  N   N6        1.0  0.4103157008669308  0.04277973604468799  0.15548773777046895  1.0000
  N   N7        1.0  0.5896842993189007  0.542779735692802  0.3445122619158489  1.0000
  N   N8        1.0  0.5896842986675584  0.9572202640166964  0.8445122623735203  1.0000
  O   O1        1.0  0.4359855057831988  0.23986771035397148  0.9262838985683569  1.0000
  O   O2        1.0  0.435985506434541  0.2601322892941425  0.4262838981106855  1.0000
  O   O3        1.0  0.5640144937512904  0.7601322897074129  0.07371610157563235  1.0000
  O   O4        1.0  0.5640144941831741  0.7398677100020855  0.5737161014968319  1.0000
  O   O5        1.0  0.34126342852576114  0.2931917404398787  0.03625882392925264  1.0000
  O   O6        1.0  0.3412634289576447  0.20680825997339164  0.5362588238504522  1.0000
  O   O7        1.0  0.6587365709927977  0.7068082596215057  0.9637411756367016  1.0000
  O   O8        1.0  0.6587365716600703  0.7931917400879928  0.46374117575706525  1.0000
  O   O9        1.0  0.16704354093686682  0.5343381059068494  0.6906755453344084  1.0000
  O   O10       1.0  0.16704354048905284  0.965661893802649  0.19067554483517374  1.0000
  O   O11       1.0  0.8329564585976225  0.46566189415453496  0.3093244548095809  1.0000
  O   O12       1.0  0.832956459029506  0.034338106258735415  0.8093244547307804  1.0000
  O   O13       1.0  0.12270571530108204  0.3942597577265855  0.7622274201477975  1.0000
  O   O14       1.0  0.12270571486919853  0.1057402426866849  0.262227420226598  1.0000
  O   O15       1.0  0.8772942853325634  0.6057402423347988  0.23777258003775498  1.0000
  O   O16       1.0  0.8772942846652907  0.8942597573746995  0.7377725799173913  1.0000
  S   S1        1.0  0.6853239533550154  0.3024006912277767  0.8722937924185011  1.0000
  S   S2        1.0  0.6853239540222881  0.19759930842033735  0.37229379253886485  1.0000
  S   S3        1.0  0.31467604617947387  0.6975993088336078  0.12770620772548807  1.0000
  S   S4        1.0  0.31467604661135745  0.802400691641047  0.6277062076466876  1.0000
  S   S5        1.0  0.8790623080585565  0.3475077697500885  0.8273243577185191  1.0000
  S   S6        1.0  0.8790623087258291  0.15249222989802552  0.32732435783888275  1.0000
  S   S7        1.0  0.12093769147593283  0.6524922303112959  0.17267564242547023  1.0000
  S   S8        1.0  0.12093769190781635  0.8475077701633589  0.6726756423466698  1.0000
