data_image0
_chemical_formula_structural       H64B8C96N24O8F32
_chemical_formula_sum              "H64 B8 C96 N24 O8 F32"
_cell_length_a       10.924762144682001
_cell_length_b       18.401064251491068
_cell_length_c       13.181880427589077
_cell_angle_alpha    90.0
_cell_angle_beta     112.82596975759304
_cell_angle_gamma    90.0

_space_group_name_H-M_alt    "P 1"
_space_group_IT_number       1

loop_
  _space_group_symop_operation_xyz
  'x, y, z'

loop_
  _atom_site_type_symbol
  _atom_site_label
  _atom_site_symmetry_multiplicity
  _atom_site_fract_x
  _atom_site_fract_y
  _atom_site_fract_z
  _atom_site_occupancy
  H   H1        1.0  0.21331539061721685  0.6790379072225405  0.5511768964082184  1.0000
  H   H2        1.0  0.28668460926917066  0.1790379075347798  0.9488231032590406  1.0000
  H   H3        1.0  0.7866846099006206  0.3209620926964278  0.44882310343469406  1.0000
  H   H4        1.0  0.7133153903321363  0.8209620923841886  0.05117689658134474  1.0000
  H   H5        1.0  0.2388916011483241  0.8140621458232329  0.532746535263283  1.0000
  H   H6        1.0  0.2611083991205177  0.3140621461354721  0.967253465227046  1.0000
  H   H7        1.0  0.7611083988354371  0.18593785409573546  0.46725346540017254  1.0000
  H   H8        1.0  0.7388916004807893  0.6859378537834963  0.0327465346133391  1.0000
  H   H9        1.0  0.12623525149619558  0.8997871701175303  0.6171012566461406  1.0000
  H   H10       1.0  0.37376474839019186  0.3997871698863228  0.8828987430211181  1.0000
  H   H11       1.0  0.8737647481051114  0.10021282980143802  0.3828987431942446  1.0000
  H   H12       1.0  0.6262352521276454  0.6002128300326457  0.11710125682179426  1.0000
  H   H13       1.0  0.9765020625250568  0.9163839612501549  0.7220632570840098  1.0000
  H   H14       1.0  0.5234979377934341  0.41638396101894726  0.7779367426790953  1.0000
  H   H15       1.0  0.02349793799278062  0.08361603866881356  0.2779367427589027  1.0000
  H   H16       1.0  0.4765020627244032  0.5836160389000212  0.22206325716381717  1.0000
  H   H17       1.0  0.8345445611743332  0.8616361968691698  0.8086699761424775  1.0000
  H   H18       1.0  0.6654554391441577  0.36163619663796215  0.6913300236206276  1.0000
  H   H19       1.0  0.16545543934350423  0.13836380304979862  0.19133002370043495  1.0000
  H   H20       1.0  0.33454456137367966  0.6383638032810062  0.3086699762222849  1.0000
  H   H21       1.0  0.7361508840486947  0.7488047844234597  0.8573474745789833  1.0000
  H   H22       1.0  0.7638491153532658  0.24880478419225208  0.6426525251815944  1.0000
  H   H23       1.0  0.26384911555261226  0.25119521549550866  0.14265252526140185  1.0000
  H   H24       1.0  0.2361508842480412  0.7511952157267163  0.35734747465879074  1.0000
  H   H25       1.0  0.7254382767583865  0.6126303721311406  0.8594438507747889  1.0000
  H   H26       1.0  0.7745617235601044  0.11263037189993294  0.6405561489883164  1.0000
  H   H27       1.0  0.2745617237594509  0.38736962778782785  0.14055614906812366  1.0000
  H   H28       1.0  0.22543827695773297  0.8873696280190355  0.35944385085459624  1.0000
  H   H29       1.0  0.861469779687936  0.5402352741197821  0.7779129419968711  1.0000
  H   H30       1.0  0.6385302197140245  0.04023527388857449  0.7220870577637067  1.0000
  H   H31       1.0  0.13853021991337097  0.4597647257991863  0.2220870578435141  1.0000
  H   H32       1.0  0.36146977988728257  0.959764726030394  0.27791294207667855  1.0000
  H   H33       1.0  0.32297213338909414  0.5699413369066509  0.9228973770985944  1.0000
  H   H34       1.0  0.1770278668797476  0.06994133667544325  0.5771026233917347  1.0000
  H   H35       1.0  0.6770278665946671  0.43005866301231754  0.07710262356486101  1.0000
  H   H36       1.0  0.8229721336380899  0.9300586632435252  0.4228973764511778  1.0000
  H   H37       1.0  0.1970672823941127  0.4973021579041815  0.011408422893258342  1.0000
  H   H38       1.0  0.3029327177889951  0.9973021575919423  0.4885915778500045  1.0000
  H   H39       1.0  0.802932718506179  0.5026978420147868  0.9885915777727244  1.0000
  H   H40       1.0  0.6970672821947662  0.0026978423270261303  0.511408422813451  1.0000
  H   H41       1.0  0.055708977893522464  0.5632324097319633  0.09461117730860359  1.0000
  H   H42       1.0  0.4442910228236614  0.0632324095007557  0.40538882261411624  1.0000
  H   H43       1.0  0.9442910226243149  0.4367675907304519  0.905388822534309  1.0000
  H   H44       1.0  0.5557089776941759  0.9367675904182128  0.5946111772287962  1.0000
  H   H45       1.0  0.9758430797871601  0.6829111087409921  0.13981401643404065  1.0000
  H   H46       1.0  0.5241569204455967  0.18291110850978454  0.36018598358199827  1.0000
  H   H47       1.0  0.024156920196601227  0.31708889117797623  0.860185984229415  1.0000
  H   H48       1.0  0.47584308007224063  0.8170888914091838  0.6398140162609143  1.0000
  H   H49       1.0  0.9715353493332481  0.817720355428938  0.12870716365399423  1.0000
  H   H50       1.0  0.5284646508995087  0.3177203557411772  0.3712928363620447  1.0000
  H   H51       1.0  0.028464650268058892  0.18227964449003045  0.8712928361863911  1.0000
  H   H52       1.0  0.47153534961832866  0.6822796447212381  0.6287071634808677  1.0000
  H   H53       1.0  0.05315167883436217  0.9333472703139066  0.07146635129714649  1.0000
  H   H54       1.0  0.44684832188282175  0.43334727008269913  0.42853364862557336  1.0000
  H   H55       1.0  0.9468483216834752  0.06665272960506163  0.928533648545766  1.0000
  H   H56       1.0  0.5531516786350157  0.5666527298362692  0.5714663512173391  1.0000
  H   H57       1.0  0.1914249651385326  0.9913222550984718  0.97933206665324  1.0000
  H   H58       1.0  0.30857503474785486  0.4913222548672643  0.5206679330140188  1.0000
  H   H59       1.0  0.8085750344627743  0.008677744820496503  0.020667933187145174  1.0000
  H   H60       1.0  0.6914249657699825  0.5086777450517042  0.4793320668288937  1.0000
  H   H61       1.0  0.32147785479618424  0.9110810913364165  0.902612514608252  1.0000
  H   H62       1.0  0.1785221454726576  0.4110810916486556  0.5973874858820772  1.0000
  H   H63       1.0  0.6785221448051227  0.088918908582552  0.09738748523213332  1.0000
  H   H64       1.0  0.8214778545111037  0.5889189088137595  0.4026125147813783  1.0000
  B   B1        1.0  0.09572775949557236  0.5957760752404121  0.3582085349702409  1.0000
  B   B2        1.0  0.4042722403050812  0.09577607555265133  0.14179146494995173  1.0000
  B   B3        1.0  0.9042722401057346  0.4042239246785563  0.6417914648701443  1.0000
  B   B4        1.0  0.5957277592962258  0.904223924366317  0.8582085348904334  1.0000
  B   B5        1.0  0.9685457749850322  0.93955930503308  0.28740590644060104  1.0000
  B   B6        1.0  0.5314542243311944  0.43955930480187233  0.2125940935729106  1.0000
  B   B7        1.0  0.03145422461627491  0.06044069542933522  0.7125940933997842  1.0000
  B   B8        1.0  0.46854577527011265  0.5604406951170959  0.7874059062674746  1.0000
  C   C1        1.0  0.16579938131163777  0.7182940692644435  0.5858460525513959  1.0000
  C   C2        1.0  0.3342006185747497  0.2182940690332359  0.9141539471158628  1.0000
  C   C3        1.0  0.8342006192061995  0.28170593065452487  0.41415394729151656  1.0000
  C   C4        1.0  0.6657993810265572  0.7817059308857325  0.0858460527245223  1.0000
  C   C5        1.0  0.18018006860047578  0.7937987308976648  0.5770552866790154  1.0000
  C   C6        1.0  0.31981993166836603  0.29379873120990413  0.9229447138113137  1.0000
  C   C7        1.0  0.819819932299816  0.20620126902130348  0.4229447139869674  1.0000
  C   C8        1.0  0.680180067932941  0.7062012687090643  0.07705528602907144  1.0000
  C   C9        1.0  0.11786438772929365  0.8411345071384015  0.6231314163686016  1.0000
  C   C10       1.0  0.38213561215709385  0.341134506907194  0.8768685832986571  1.0000
  C   C11       1.0  0.8821356118720133  0.15886549278056677  0.3768685834717836  1.0000
  C   C12       1.0  0.6178643883607435  0.6588654930117744  0.12313141654425526  1.0000
  C   C13       1.0  0.9675485817667651  0.8576298307703163  0.7250023801321629  1.0000
  C   C14       1.0  0.5324514189341799  0.3576298305391086  0.7749976204540124  1.0000
  C   C15       1.0  0.032451418216996084  0.14237016914865216  0.27499762053129256  1.0000
  C   C16       1.0  0.46754858196611165  0.6423701693798598  0.2250023802119703  1.0000
  C   C17       1.0  0.8891066951934445  0.8273243662396539  0.7730645833700509  1.0000
  C   C18       1.0  0.6108933042085158  0.3273243665518932  0.7269354163905271  1.0000
  C   C19       1.0  0.11089330440786238  0.17267563367931443  0.22693541647033438  1.0000
  C   C20       1.0  0.38910669539279114  0.6726756339105221  0.27306458344985823  1.0000
  C   C21       1.0  0.7960672173390337  0.7155082994144281  0.8256709242710136  1.0000
  C   C22       1.0  0.7039327829794572  0.21550829918322048  0.6743290754920915  1.0000
  C   C23       1.0  0.2039327831788036  0.2844917005045403  0.17432907557189892  1.0000
  C   C24       1.0  0.2960672175383803  0.7844917007357479  0.32567092435082096  1.0000
  C   C25       1.0  0.7903737918073417  0.6404205142126543  0.8269851652738928  1.0000
  C   C26       1.0  0.7096262075946188  0.14042051398144667  0.6730148344866852  1.0000
  C   C27       1.0  0.20962620779396524  0.3595794857063141  0.17301483456649247  1.0000
  C   C28       1.0  0.2903737920066883  0.8595794859375216  0.32698516535370015  1.0000
  C   C29       1.0  0.8650659852474638  0.5994544581358208  0.7811037219680819  1.0000
  C   C30       1.0  0.6349340145369511  0.09945445844805997  0.7188962786155663  1.0000
  C   C31       1.0  0.13493401435384333  0.40054554178314766  0.21889627787230348  1.0000
  C   C32       1.0  0.3650659854468101  0.9005455420143553  0.2811037220478892  1.0000
  C   C33       1.0  0.9490203504771941  0.7045727052960774  0.7344217342950233  1.0000
  C   C34       1.0  0.5509796493072207  0.20457270560831656  0.7655782662886248  1.0000
  C   C35       1.0  0.05097964950656719  0.2954272946228911  0.26557826636843224  1.0000
  C   C36       1.0  0.4490203506765406  0.7954272943106518  0.2344217343748307  1.0000
  C   C37       1.0  0.8770821964693736  0.750104273391771  0.778784391975209  1.0000
  C   C38       1.0  0.6229178029325869  0.2501042731605634  0.7212156077853688  1.0000
  C   C39       1.0  0.1229178031319334  0.2498957265271974  0.2212156078651761  1.0000
  C   C40       1.0  0.37708219666872006  0.749895726758405  0.2787843920550165  1.0000
  C   C41       1.0  0.029703400243086337  0.7364371182445016  0.682598588626212  1.0000
  C   C42       1.0  0.4702966000257555  0.23643711855674085  0.8174014118641172  1.0000
  C   C43       1.0  0.9702965993582207  0.26356288167446673  0.31740141121417326  1.0000
  C   C44       1.0  0.5297034008745362  0.7635628819056743  0.1825985888018656  1.0000
  C   C45       1.0  0.0391085125272094  0.8131775192724245  0.677568577333707  1.0000
  C   C46       1.0  0.46089148774163236  0.3131775195846637  0.8224314231566221  1.0000
  C   C47       1.0  0.9608914883730824  0.18682248064654383  0.3224314233322758  1.0000
  C   C48       1.0  0.5391085118596746  0.6868224803343046  0.1775685766837631  1.0000
  C   C49       1.0  0.25961661044049233  0.5964785275455255  0.9585726487190065  1.0000
  C   C50       1.0  0.24038338944589518  0.09647852785776474  0.5414273509482523  1.0000
  C   C51       1.0  0.740383390077345  0.4035214723734429  0.041427351123905956  1.0000
  C   C52       1.0  0.7596166101554118  0.9035214720612037  0.45857264889213295  1.0000
  C   C53       1.0  0.18798296612036805  0.5562670446721889  0.008253398536884659  1.0000
  C   C54       1.0  0.31201703368028544  0.05626704444098129  0.49174660138330795  1.0000
  C   C55       1.0  0.8120170334809389  0.44373295524677947  0.9917466013035006  1.0000
  C   C56       1.0  0.6879829659210215  0.9437329554779871  0.5082533984570773  1.0000
  C   C57       1.0  0.10980262268713528  0.5923723731966608  0.05310278403203176  1.0000
  C   C58       1.0  0.3901973771135182  0.09237237296545316  0.4468972158881609  1.0000
  C   C59       1.0  0.8901973769141718  0.4076276267223076  0.9468972158083534  1.0000
  C   C60       1.0  0.6098026224877887  0.9076276269535152  0.5531027839522243  1.0000
  C   C61       1.0  0.028348632899230647  0.7113845547786334  0.09633740905632537  1.0000
  C   C62       1.0  0.47165136690142284  0.2113845550908726  0.40366259086386724  1.0000
  C   C63       1.0  0.9716513667020762  0.288615445140335  0.9036625907840599  1.0000
  C   C64       1.0  0.5283486336164145  0.7886154448280958  0.5963374089790453  1.0000
  C   C65       1.0  0.027050709097245232  0.7856746969854478  0.09125704630017188  1.0000
  C   C66       1.0  0.4729492907034083  0.285674697297687  0.4087429536200207  1.0000
  C   C67       1.0  0.9729492918030465  0.21432530293352062  0.9087429543658109  1.0000
  C   C68       1.0  0.5270507088978987  0.7143253031647282  0.5912570462203645  1.0000
  C   C69       1.0  0.1072787042299451  0.9004235501572908  0.033818276148209626  1.0000
  C   C70       1.0  0.3927212964872388  0.40042354992608326  0.4661817237745102  1.0000
  C   C71       1.0  0.8927212962878921  0.0995764497616775  0.9661817236947029  1.0000
  C   C72       1.0  0.6072787040305986  0.5995764499928851  0.5338182760684023  1.0000
  C   C73       1.0  0.18379644570074843  0.9324655658766928  0.983498462041795  1.0000
  C   C74       1.0  0.3162035541856391  0.43246556618893195  0.5165015376254638  1.0000
  C   C75       1.0  0.816203554817089  0.06753443404227566  0.01650153780111747  1.0000
  C   C76       1.0  0.6837964454156679  0.5675344342734833  0.48349846221492143  1.0000
  C   C77       1.0  0.256748530665082  0.888026246562119  0.9399336044541908  1.0000
  C   C78       1.0  0.24325146922130553  0.3880262463309113  0.560066395213068  1.0000
  C   C79       1.0  0.7432514698527553  0.11197375390029626  0.06006639538872168  1.0000
  C   C80       1.0  0.7567485303800016  0.6119737535880571  0.43993360462731723  1.0000
  C   C81       1.0  0.1773873113059464  0.7832222980707305  0.9927901355746965  1.0000
  C   C82       1.0  0.322612688580441  0.2832222983829697  0.5072098640925622  1.0000
  C   C83       1.0  0.8226126882953605  0.2167777018482379  0.007209864265688606  1.0000
  C   C84       1.0  0.6773873110208659  0.7167777015359987  0.492790135747823  1.0000
  C   C85       1.0  0.10156019217373588  0.823785244854611  0.039480082526571834  1.0000
  C   C86       1.0  0.39843980762691766  0.32378524462340347  0.4605199173936208  1.0000
  C   C87       1.0  0.898439807427571  0.17621475506435733  0.9605199173138134  1.0000
  C   C88       1.0  0.6015601932733741  0.676214755295565  0.539480083272362  1.0000
  C   C89       1.0  0.17776610335290635  0.7053544111693576  0.9973746731081532  1.0000
  C   C90       1.0  0.3222338969159354  0.2053544109381501  0.5026253273821758  1.0000
  C   C91       1.0  0.8222338966308549  0.2946455887496107  0.0026253275553022246  1.0000
  C   C92       1.0  0.6777661036019019  0.7946455889808183  0.49737467246073663  1.0000
  C   C93       1.0  0.10313062992736895  0.6690805233725737  0.049470330469167205  1.0000
  C   C94       1.0  0.3968693698732845  0.1690805231413661  0.45052966945102546  1.0000
  C   C95       1.0  0.8968693696739379  0.3309194770898415  0.950529669371218  1.0000
  C   C96       1.0  0.6031306297280224  0.8309194767776023  0.5494703303893599  1.0000
  N   N1        1.0  0.09353917210087488  0.6920231605064987  0.6380318516331558  1.0000
  N   N2        1.0  0.40646082686898216  0.192023160818738  0.8619681480315756  1.0000
  N   N3        1.0  0.9064608275004321  0.3079768394124696  0.3619681482072294  1.0000
  N   N4        1.0  0.5935391727323248  0.8079768396436773  0.1380318518088095  1.0000
  N   N5        1.0  0.942437766520879  0.6314106244729037  0.7378082016021883  1.0000
  N   N6        1.0  0.5575622332635359  0.1314106242416961  0.7621917989814598  1.0000
  N   N7        1.0  0.05756223308042811  0.3685893754460647  0.26219179823819705  1.0000
  N   N8        1.0  0.4424377667202254  0.8685893756772722  0.23780820168199557  1.0000
  N   N9        1.0  0.03904590370646152  0.5822442883504324  0.6386473752035685  1.0000
  N   N10       1.0  0.46095409656238034  0.08224428811922485  0.8613526252867607  1.0000
  N   N11       1.0  0.9609540962772999  0.4177557115685359  0.361352625459887  1.0000
  N   N12       1.0  0.5390459030389266  0.9177557117997436  0.13864737455362458  1.0000
  N   N13       1.0  0.2516714162823661  0.6683832300081989  0.9531764150439641  1.0000
  N   N14       1.0  0.24832858360402138  0.16838322977699127  0.5468235846232947  1.0000
  N   N15       1.0  0.7483285842354711  0.33161676991076955  0.04682358479894831  1.0000
  N   N16       1.0  0.7516714159972857  0.8316167701419771  0.4531764152170905  1.0000
  N   N17       1.0  0.25149513976661253  0.816159447341914  0.9448320362533245  1.0000
  N   N18       1.0  0.24850486011977505  0.31615944711070637  0.5551679634139345  1.0000
  N   N19       1.0  0.7485048607512248  0.18384055257705442  0.05516796358958808  1.0000
  N   N20       1.0  0.751495139481532  0.683840552808262  0.44483203642645075  1.0000
  N   N21       1.0  0.3786110669163695  0.7405548914865498  0.9125670071499065  1.0000
  N   N22       1.0  0.12138893335247239  0.2405548912553423  0.5874329933404226  1.0000
  N   N23       1.0  0.6213889339839223  0.25944510843241847  0.08743299351607627  1.0000
  N   N24       1.0  0.8786110662488346  0.7594451086636261  0.4125670064999626  1.0000
  O   O1        1.0  0.1276022683474078  0.5472157404800141  0.6889323360369617  1.0000
  O   O2        1.0  0.37239773153897976  0.047215740792253255  0.8110676636302973  1.0000
  O   O3        1.0  0.8723977312538992  0.4527842594389544  0.31106766380342354  1.0000
  O   O4        1.0  0.6276022680623272  0.9527842591267152  0.18893233621008806  1.0000
  O   O5        1.0  0.3612527923968433  0.7384302382890137  0.8215572015193079  1.0000
  O   O6        1.0  0.1387472078719984  0.23843023805780605  0.678442798971021  1.0000
  O   O7        1.0  0.6387472075869178  0.26156976162995477  0.1784427991441475  1.0000
  O   O8        1.0  0.8612527926458389  0.7615697618611623  0.3215572008718913  1.0000
  F   F1        1.0  0.2352601395423035  0.585443017467159  0.39922647760890945  1.0000
  F   F2        1.0  0.26473986025834995  0.08544301777939821  0.1007735223112832  1.0000
  F   F3        1.0  0.7647398600590034  0.4145569824518094  0.6007735222314757  1.0000
  F   F4        1.0  0.735260139342957  0.9145569821395702  0.8992264775291019  1.0000
  F   F5        1.0  0.0339401382444271  0.5588388524411968  0.2559895969263678  1.0000
  F   F6        1.0  0.46605986155622636  0.05883885220998929  0.2440104029938248  1.0000
  F   F7        1.0  0.9660598613568799  0.4411611474777715  0.7440104029140173  1.0000
  F   F8        1.0  0.5339401380450807  0.9411611477089791  0.7559895968465605  1.0000
  F   F9        1.0  0.06735674936861534  0.6710931075086788  0.34202152910402134  1.0000
  F   F10       1.0  0.4326432513485685  0.17109310782091797  0.15797847081869856  1.0000
  F   F11       1.0  0.9326432511492221  0.32890689241028964  0.6579784707388912  1.0000
  F   F12       1.0  0.5673567491692687  0.8289068920980505  0.8420215290242139  1.0000
  F   F13       1.0  0.04607606801638095  0.5680025082871536  0.43485633793473516  1.0000
  F   F14       1.0  0.4539239321667269  0.06800250805594593  0.06514366280852772  1.0000
  F   F15       1.0  0.9539239319673803  0.43199749163181483  0.5651436627287203  1.0000
  F   F16       1.0  0.5460760678170344  0.9319974918630224  0.9348563378549278  1.0000
  F   F17       1.0  0.8792228645456427  0.8926355093113171  0.2077672367555887  1.0000
  F   F18       1.0  0.6207771356871141  0.39263550962355637  0.29223276326045017  1.0000
  F   F19       1.0  0.12077713505566426  0.10736449060765126  0.7922327630847964  1.0000
  F   F20       1.0  0.37922286391419285  0.6073644908388588  0.7077672365799351  1.0000
  F   F21       1.0  0.043319102076386416  0.8996453027796241  0.38384528124924266  1.0000
  F   F22       1.0  0.45668089772426707  0.39964530309186336  0.11615471867094987  1.0000
  F   F23       1.0  0.9566808975249206  0.10035469713934422  0.6161547185911426  1.0000
  F   F24       1.0  0.5433191018770399  0.6003546973705518  0.8838452811694353  1.0000
  F   F25       1.0  0.8958674470265751  0.9944195221489568  0.31573907855734684  1.0000
  F   F26       1.0  0.6041325532061816  0.4944195224611961  0.184260921458692  1.0000
  F   F27       1.0  0.10413255349126224  0.005580477770011544  0.6842609212855656  1.0000
  F   F28       1.0  0.3958674463951253  0.5055804774577723  0.8157390783816931  1.0000
  F   F29       1.0  0.055607401434317714  0.9719882576112792  0.24387080289587115  1.0000
  F   F30       1.0  0.4443925992828661  0.4719882579235184  0.2561291970268487  1.0000
  F   F31       1.0  0.9443925990835197  0.028011742307689217  0.7561291969470412  1.0000
  F   F32       1.0  0.5556074012349712  0.5280117425388968  0.7438708028160638  1.0000
