data_image0
_chemical_formula_structural       H88C104N8O28S12Cl8
_chemical_formula_sum              "H88 C104 N8 O28 S12 Cl8"
_cell_length_a       8.317467373621035
_cell_length_b       40.21512450798866
_cell_length_c       8.744109620326059
_cell_angle_alpha    90.0
_cell_angle_beta     112.07036981450133
_cell_angle_gamma    90.0

_space_group_name_H-M_alt    "P 1"
_space_group_IT_number       1

loop_
  _space_group_symop_operation_xyz
  'x, y, z'

loop_
  _atom_site_type_symbol
  _atom_site_label
  _atom_site_symmetry_multiplicity
  _atom_site_fract_x
  _atom_site_fract_y
  _atom_site_fract_z
  _atom_site_occupancy
  H   H1        1.0  0.34659477621959794  0.8724459341915086  0.3168743141079777  1.0000
  H   H2        1.0  0.1534052241204918  0.37244593404216997  0.6831256865212516  1.0000
  H   H3        1.0  0.6534052244663204  0.12755406585850587  0.6831256865012407  1.0000
  H   H4        1.0  0.8465947765654266  0.6275540657591817  0.31687431408796685  1.0000
  H   H5        1.0  0.22554770891632056  0.8188545158789313  0.35927244482299814  1.0000
  H   H6        1.0  0.27445229022460066  0.3188545157295927  0.6407275558140695  1.0000
  H   H7        1.0  0.7744522905704293  0.1811454841710832  0.6407275557940585  1.0000
  H   H8        1.0  0.7255477092621492  0.6811454843204218  0.3592724448029872  1.0000
  H   H9        1.0  0.3825759178492233  0.7655063667373361  0.35955108123266855  1.0000
  H   H10       1.0  0.11742408199576487  0.2655063668366602  0.6404489181625309  1.0000
  H   H11       1.0  0.6174240823415935  0.2344936333126784  0.64044891814252  1.0000
  H   H12       1.0  0.882575918195052  0.7344936332133543  0.3595510812126576  1.0000
  H   H13       1.0  0.6572619627611935  0.7669464097735946  0.3116773720028272  1.0000
  H   H14       1.0  0.842738037071385  0.26694640962425603  0.6883226285942187  1.0000
  H   H15       1.0  0.34273803792472485  0.23305359027641986  0.6883226286063913  1.0000
  H   H16       1.0  0.15726196241536486  0.7330535904257584  0.31167737202283813  1.0000
  H   H17       1.0  0.028842896644490433  0.8461697435063327  0.9703978024279365  1.0000
  H   H18       1.0  0.47115710320049775  0.34616974360565683  0.029602196967262996  1.0000
  H   H19       1.0  0.9711571035463265  0.15383025654368176  0.029602196947252083  1.0000
  H   H20       1.0  0.5288428957911506  0.6538302564443577  0.9703978024157639  1.0000
  H   H21       1.0  0.19898858498391328  0.793726158268121  0.045649755668761616  1.0000
  H   H22       1.0  0.30101141486107497  0.2937261583674451  0.954350243726438  1.0000
  H   H23       1.0  0.8010114152069037  0.2062738417818935  0.9543502437064271  1.0000
  H   H24       1.0  0.698988585329742  0.7062738416825693  0.04564975564875069  1.0000
  H   H25       1.0  0.16729717018586307  0.7839548676204459  0.5447128952413064  1.0000
  H   H26       1.0  0.33270283015422664  0.28395486747110726  0.455287105387923  1.0000
  H   H27       1.0  0.8327028305000552  0.21604513242956858  0.4552871053679121  1.0000
  H   H28       1.0  0.6672971705316918  0.7160451323302445  0.5447128952212955  1.0000
  H   H29       1.0  0.7347762929715302  0.820854535299088  0.7353263630753929  1.0000
  H   H30       1.0  0.7652237063659469  0.32085453539841213  0.2646736362876231  1.0000
  H   H31       1.0  0.26522370602011813  0.1791454647509264  0.26467363630763396  1.0000
  H   H32       1.0  0.23477629382487003  0.6791454646516023  0.7353263630875655  1.0000
  H   H33       1.0  0.4494797234374281  0.823037778819385  0.7565693950695539  1.0000
  H   H34       1.0  0.05052027690266168  0.3230377789187091  0.24343060555967555  1.0000
  H   H35       1.0  0.5505202760493217  0.1769622212306295  0.2434306055475029  1.0000
  H   H36       1.0  0.9494797237832566  0.6769622211313054  0.7565693950495428  1.0000
  H   H37       1.0  0.2863397363211912  0.8768604519176625  0.7131939757933008  1.0000
  H   H38       1.0  0.21366026352379705  0.37686045176832383  0.2868060236018988  1.0000
  H   H39       1.0  0.7136602638696257  0.12313954813235203  0.28680602358188784  1.0000
  H   H40       1.0  0.7863397354678514  0.623139548033028  0.7131939757811282  1.0000
  H   H41       1.0  0.4229852035658992  0.9283794039375283  0.6624311063795055  1.0000
  H   H42       1.0  0.07701479627908896  0.42837940403685243  0.33756889301569387  1.0000
  H   H43       1.0  0.5770147954257492  0.07162059611248617  0.3375688930035213  1.0000
  H   H44       1.0  0.9229852039117279  0.5716205960131621  0.6624311063594948  1.0000
  H   H45       1.0  0.37524169378452304  0.8814455611832913  0.00286867051543562  1.0000
  H   H46       1.0  0.12475830486129666  0.3814455612826155  0.9971313288876023  1.0000
  H   H47       1.0  0.6247583052071254  0.11855443886672311  0.9971313288675914  1.0000
  H   H48       1.0  0.8752416941303517  0.618554438767399  0.002868670495424709  1.0000
  H   H49       1.0  0.20431060580173008  0.9328517663186089  0.8814424131357589  1.0000
  H   H50       1.0  0.2956893940432581  0.432851766417933  0.11855758625944061  1.0000
  H   H51       1.0  0.7956893943890868  0.06714823348274293  0.1185575862394297  1.0000
  H   H52       1.0  0.7043106061475588  0.5671482336320814  0.881442413115748  1.0000
  H   H53       1.0  0.544093601960026  0.9894690101505335  0.2964260628591899  1.0000
  H   H54       1.0  0.9559063978725526  0.48946901024985756  0.7035739377378558  1.0000
  H   H55       1.0  0.45590639752672396  0.010530989899481013  0.7035739377578669  1.0000
  H   H56       1.0  0.044093602813365815  0.5105309898001569  0.29642606287136253  1.0000
  H   H57       1.0  0.23106498214827442  0.9715074437290119  0.4756791621290646  1.0000
  H   H58       1.0  0.2689350181918153  0.4715074438283359  0.5243208385001648  1.0000
  H   H59       1.0  0.768935018537644  0.028492556321002626  0.5243208384801539  1.0000
  H   H60       1.0  0.7310649812949345  0.5284925562216786  0.47567916211689193  1.0000
  H   H61       1.0  0.9998770875144631  0.9757869508076437  0.364062531784368  1.0000
  H   H62       1.0  0.5001229118230139  0.4757869506583052  0.635937467578648  1.0000
  H   H63       1.0  0.00012291147718527438  0.024213049242370742  0.635937467598659  1.0000
  H   H64       1.0  0.499877088367803  0.5242130491430466  0.3640625317965406  1.0000
  H   H65       1.0  0.14997094089127141  0.981893467771211  0.26152549005678255  1.0000
  H   H66       1.0  0.35002905944881824  0.4818934676218724  0.7384745105724466  1.0000
  H   H67       1.0  0.8500290585954784  0.018106532278803537  0.738474510560274  1.0000
  H   H68       1.0  0.6499709412371001  0.5181065324281421  0.2615254900367717  1.0000
  H   H69       1.0  0.902727729056517  0.8983554474094279  0.08121924231332013  1.0000
  H   H70       1.0  0.5972722707760616  0.3983554475087519  0.9187807582837257  1.0000
  H   H71       1.0  0.09727227162940144  0.10164455264058667  0.9187807582958983  1.0000
  H   H72       1.0  0.4027277287106883  0.6016445525412625  0.08121924233333104  1.0000
  H   H73       1.0  0.9706846215604064  0.9372761741049046  0.023256667715205886  1.0000
  H   H74       1.0  0.5293153789762393  0.43727617395556606  0.9767433316399717  1.0000
  H   H75       1.0  0.029315378630410588  0.0627238259451098  0.9767433316599827  1.0000
  H   H76       1.0  0.4706846212145776  0.5627238260944484  0.023256667735216795  1.0000
  H   H77       1.0  0.8214106506817634  0.9366269700972231  0.1294690684495045  1.0000
  H   H78       1.0  0.6785893498548823  0.43662697019654717  0.8705309309056732  1.0000
  H   H79       1.0  0.17858934950905345  0.06337302970412871  0.870530930925684  1.0000
  H   H80       1.0  0.3214106503359347  0.5633730298534673  0.12946906846951542  1.0000
  H   H81       1.0  0.8601467417677917  0.924604307581185  0.4501266328453734  1.0000
  H   H82       1.0  0.6398532580647868  0.4246043076805091  0.5498733677516724  1.0000
  H   H83       1.0  0.139853257718958  0.0753956922201668  0.5498733677716833  1.0000
  H   H84       1.0  0.36014674262113167  0.5753956923695054  0.450126632857546  1.0000
  H   H85       1.0  0.9910318742553307  0.8662243050641315  0.42359714696197315  1.0000
  H   H86       1.0  0.5089681267764163  0.36622430491479285  0.5764028536272344  1.0000
  H   H87       1.0  0.008968126430587612  0.13377569498588301  0.5764028536472453  1.0000
  H   H88       1.0  0.4910318739095021  0.6337756951352216  0.4235971469819841  1.0000
  C   C1        1.0  0.6579148257894173  0.8201993484677067  0.2893856444643451  1.0000
  C   C2        1.0  0.8420851735480597  0.3201993485670307  0.7106143548986709  1.0000
  C   C3        1.0  0.34208517440139957  0.17980065133364523  0.7106143549108435  1.0000
  C   C4        1.0  0.15791482544358865  0.6798006514829837  0.289385644484356  1.0000
  C   C5        1.0  0.5703058073397272  0.8500177102077476  0.29100623841001966  1.0000
  C   C6        1.0  0.9296941936920198  0.35001771030707185  0.7089937621791879  1.0000
  C   C7        1.0  0.42969419334619113  0.14998228984226675  0.7089937621991987  1.0000
  C   C8        1.0  0.07030580699389861  0.6499822897429427  0.29100623843003065  1.0000
  C   C9        1.0  0.4132275115318636  0.8492907431684142  0.3137523410825757  1.0000
  C   C10       1.0  0.08677248831312456  0.34929074326773835  0.6862476583126237  1.0000
  C   C11       1.0  0.5867724874597847  0.15070925688160022  0.6862476583004511  1.0000
  C   C12       1.0  0.9132275118776922  0.6507092567822761  0.31375234106256483  1.0000
  C   C13       1.0  0.3469123920351251  0.8189682141468327  0.3394997236356942  1.0000
  C   C14       1.0  0.15308760780986305  0.31896821424615684  0.6605002757595053  1.0000
  C   C15       1.0  0.6530876069565232  0.18103178565451905  0.6605002757473327  1.0000
  C   C16       1.0  0.8469123923809537  0.6810317858038576  0.33949972361568326  1.0000
  C   C17       1.0  0.43432863434340596  0.7893109676607979  0.34095955155061175  1.0000
  C   C18       1.0  0.06567136550158222  0.28931096751145935  0.6590404478445878  1.0000
  C   C19       1.0  0.5656713658474108  0.21068903238921657  0.6590404478245768  1.0000
  C   C20       1.0  0.9343286346892348  0.7106890322898924  0.34095955153060087  1.0000
  C   C21       1.0  0.5894532011960987  0.7898968447477959  0.31490075990061783  1.0000
  C   C22       1.0  0.9105467998356483  0.2898968448471199  0.6850992406885896  1.0000
  C   C23       1.0  0.41054679948981976  0.21010315530221862  0.6850992407086006  1.0000
  C   C24       1.0  0.08945320085027  0.7101031552028946  0.31490075992062877  1.0000
  C   C25       1.0  0.039821908464800514  0.8270241272880602  0.5938263579798291  1.0000
  C   C26       1.0  0.46017809138018767  0.32702412713872153  0.4061736414153703  1.0000
  C   C27       1.0  0.9601780905268478  0.1729758727619544  0.4061736414031977  1.0000
  C   C28       1.0  0.5398219088106292  0.6729758729112929  0.5938263579598182  1.0000
  C   C29       1.0  6.443580331967765e-05  0.8441594398957113  0.7154909437769096  1.0000
  C   C30       1.0  0.49993556404166856  0.3441594399950354  0.28450905561829004  1.0000
  C   C31       1.0  0.9999355643874971  0.15584055990564052  0.2845090555982791  1.0000
  C   C32       1.0  0.5000644361491483  0.6558405600549791  0.7154909437568985  1.0000
  C   C33       1.0  0.06121710042921688  0.8326493658709982  0.87783674035042  1.0000
  C   C34       1.0  0.4387828999108728  0.33264936597032235  0.12216326027880925  1.0000
  C   C35       1.0  0.9387829002567015  0.16735063393035354  0.12216326025879834  1.0000
  C   C36       1.0  0.5612171007750456  0.6673506340796921  0.8778367403304093  1.0000
  C   C37       1.0  0.15401624690526675  0.8030247578516114  0.9197976518189089  1.0000
  C   C38       1.0  0.345983753434823  0.30302475795093553  0.08020234881032044  1.0000
  C   C39       1.0  0.8459837525814831  0.19697524194974037  0.08020234879814782  1.0000
  C   C40       1.0  0.6540162472510954  0.6969752420990789  0.9197976517988979  1.0000
  C   C41       1.0  0.18798010436336732  0.7853254101880575  0.7978675987987023  1.0000
  C   C42       1.0  0.3120198959767224  0.2853254100387189  0.20213240183052703  1.0000
  C   C43       1.0  0.812019896322551  0.21467458986195695  0.20213240181051612  1.0000
  C   C44       1.0  0.687980104709196  0.7146745897626329  0.7978675987786915  1.0000
  C   C45       1.0  0.13455735653718323  0.7972930264987913  0.6370854183905486  1.0000
  C   C46       1.0  0.3654426433078049  0.29729302634945287  0.36291458100465085  1.0000
  C   C47       1.0  0.8654426436536337  0.20270697355122305  0.36291458098463997  1.0000
  C   C48       1.0  0.634557356883012  0.7027069734518989  0.6370854183705378  1.0000
  C   C49       1.0  0.653877441909805  0.9038955719950359  0.6683191790690822  1.0000
  C   C50       1.0  0.8461225579227735  0.40389557209436006  0.3316808215279636  1.0000
  C   C51       1.0  0.34612255757694477  0.09610442805497853  0.3316808215479745  1.0000
  C   C52       1.0  0.15387744276314494  0.5961044279556544  0.6683191790812548  1.0000
  C   C53       1.0  0.7439182004280089  0.8734247671674498  0.6893905956360691  1.0000
  C   C54       1.0  0.7560817989094679  0.37342476726677387  0.3106094037269469  1.0000
  C   C55       1.0  0.25608179856363933  0.12657523263390205  0.3106094037469578  1.0000
  C   C56       1.0  0.24391820128134886  0.6265752327832406  0.6893905956482417  1.0000
  C   C57       1.0  0.6681147828714231  0.8445776832856244  0.720925049394937  1.0000
  C   C58       1.0  0.831885218160324  0.3445776833849485  0.27907495119427056  1.0000
  C   C59       1.0  0.3318852178144953  0.1554223165157274  0.27907495121428144  1.0000
  C   C60       1.0  0.1681147825255944  0.655422316665066  0.7209250494149478  1.0000
  C   C61       1.0  0.505696160935761  0.8458698573279968  0.7319280751710304  1.0000
  C   C62       1.0  0.9943038388968175  0.3458698571786583  0.26807192542601543  1.0000
  C   C63       1.0  0.4943038385509888  0.1541301427220176  0.26807192544602637  1.0000
  C   C64       1.0  0.00569616178910088  0.6541301426226934  0.731928075183203  1.0000
  C   C65       1.0  0.41512669014093045  0.8757581738433724  0.709013055661735  1.0000
  C   C66       1.0  0.0848733097040578  0.3757581739426965  0.29098694373346445  1.0000
  C   C67       1.0  0.5848733100498865  0.12424182595797942  0.2909869437134535  1.0000
  C   C68       1.0  0.9151266892875906  0.624241826107318  0.7090130556495624  1.0000
  C   C69       1.0  0.4897616264004346  0.9046241100850817  0.6778260831870712  1.0000
  C   C70       1.0  0.010238373444553642  0.4046241099357431  0.3221739162081283  1.0000
  C   C71       1.0  0.5102383737903824  0.09537588996493283  0.3221739161881174  1.0000
  C   C72       1.0  0.9897616255470947  0.5953758901142714  0.6778260831748986  1.0000
  C   C73       1.0  0.6027942193833711  0.9371877113674764  0.29949002314527623  1.0000
  C   C74       1.0  0.8972057804492075  0.4371877114668004  0.7005099774517696  1.0000
  C   C75       1.0  0.39720578010337887  0.06281228868253817  0.7005099774717805  1.0000
  C   C76       1.0  0.10279422023671086  0.5628122885832141  0.2994900231574488  1.0000
  C   C77       1.0  0.5513994963487598  0.9069160445532116  0.21524457854382567  1.0000
  C   C78       1.0  0.9486005029887172  0.4069160446525358  0.7847554208191903  1.0000
  C   C79       1.0  0.4486005026428886  0.09308395524814013  0.7847554208392012  1.0000
  C   C80       1.0  0.05139949720209965  0.5930839553974787  0.21524457855599832  1.0000
  C   C81       1.0  0.4101201594501629  0.9052500631390129  0.06578994557910336  1.0000
  C   C82       1.0  0.08987984088992682  0.4052500629896743  0.934210055050126  1.0000
  C   C83       1.0  0.589879840036587  0.0947499369110016  0.9342100550379534  1.0000
  C   C84       1.0  0.9101201597959916  0.5947499368116774  0.06578994555909244  1.0000
  C   C85       1.0  0.31537327153785866  0.9337470998638984  0.998225377209307  1.0000
  C   C86       1.0  0.184626728802231  0.4337470999632226  0.0017746234199221618  1.0000
  C   C87       1.0  0.6846267291480598  0.06625289993745333  0.0017746233999112503  1.0000
  C   C88       1.0  0.8153732718836874  0.5662529000867919  0.9982253771892963  1.0000
  C   C89       1.0  0.3650657724440892  0.9638144271392325  0.08324062927977761  1.0000
  C   C90       1.0  0.1349342278960005  0.46381442723855654  0.9167593713494518  1.0000
  C   C91       1.0  0.6349342270426607  0.03618557266211934  0.9167593713372792  1.0000
  C   C92       1.0  0.8650657727899178  0.536185572811458  0.0832406292597667  1.0000
  C   C93       1.0  0.5072854524478404  0.9658885818514337  0.2320404641700915  1.0000
  C   C94       1.0  0.9927145473847381  0.4658885819507577  0.7679595364269542  1.0000
  C   C95       1.0  0.49271454823807803  0.03411141819858087  0.7679595364391271  1.0000
  C   C96       1.0  0.007285452102011722  0.5341114180992568  0.23204046419010244  1.0000
  C   C97       1.0  0.12326226531741878  0.9679736620551102  0.3571236508477693  1.0000
  C   C98       1.0  0.3767377333284009  0.46797366215443437  0.6428763485552684  1.0000
  C   C99       1.0  0.8767377336742295  0.03202633774624153  0.6428763485352575  1.0000
  C   C100      1.0  0.6232622656632475  0.5320263378955801  0.3571236508277585  1.0000
  C   C101      1.0  0.9332437987129737  0.9244896698657383  0.11569439635989281  1.0000
  C   C102      1.0  0.5667562006245034  0.42448966971639973  0.8843056030031231  1.0000
  C   C103      1.0  0.06675620147784321  0.07551033018427616  0.8843056030152957  1.0000
  C   C104      1.0  0.433243798367145  0.5755103303336147  0.11569439637990372  1.0000
  N   N1        1.0  0.9935588460433438  0.8403541466914194  0.4335353110753335  1.0000
  N   N2        1.0  0.5064411537892348  0.34035414654208085  0.5664646895217124  1.0000
  N   N3        1.0  0.006441154642574709  0.15964585335859505  0.566464689533885  1.0000
  N   N4        1.0  0.49355884569751496  0.6596458532592709  0.4335353110953445  1.0000
  N   N5        1.0  0.753360430986839  0.9389194906632526  0.4464392254276739  1.0000
  N   N6        1.0  0.7466395688457395  0.43891949051391405  0.553560775169372  1.0000
  N   N7        1.0  0.2466395696990793  0.061080509386761905  0.5535607751815446  1.0000
  N   N8        1.0  0.25336043014590887  0.5610805095361004  0.44643922421365495  1.0000
  O   O1        1.0  0.8526628672979538  0.8421970590510536  0.13086669360442804  1.0000
  O   O2        1.0  0.6473371320395231  0.3421970591503777  0.8691333057585879  1.0000
  O   O3        1.0  0.14733713169369447  0.15780294099896086  0.8691333057785988  1.0000
  O   O4        1.0  0.3526628669521252  0.6578029408996368  0.13086669362443895  1.0000
  O   O5        1.0  0.9185269136444079  0.7871298778078354  0.2727045229226966  1.0000
  O   O6        1.0  0.5814730856930692  0.2871298776584968  0.7272954764403192  1.0000
  O   O7        1.0  0.08147308534724057  0.21287012224217913  0.7272954764603303  1.0000
  O   O8        1.0  0.41852691449774765  0.7128701221428551  0.2727045229348693  1.0000
  O   O9        1.0  0.9024222065924109  0.8732749198134077  0.6723530938653643  1.0000
  O   O10       1.0  0.5975777939442347  0.37327491991273165  0.3276469054898133  1.0000
  O   O11       1.0  0.09757779359840592  0.12672507998794424  0.32764690550982417  1.0000
  O   O12       1.0  0.40242220624658226  0.6267250801372828  0.6723530938853753  1.0000
  O   O13       1.0  0.912464577621702  0.9465905127917237  0.7447257482158085  1.0000
  O   O14       1.0  0.5875354229149437  0.44659051289104773  0.25527425113936913  1.0000
  O   O15       1.0  0.08753542256911491  0.05340948725829083  0.25527425115938  1.0000
  O   O16       1.0  0.41246457727587327  0.5534094871589668  0.7447257482358194  1.0000
  O   O17       1.0  0.6066237342060439  0.9670657471736646  0.6123565333282827  1.0000
  O   O18       1.0  0.8933762668257031  0.4670657470243259  0.3876434672609249  1.0000
  O   O19       1.0  0.39337626647987456  0.032934252876350024  0.38764346728093585  1.0000
  O   O20       1.0  0.10662373386021522  0.532934252777026  0.6123565333482935  1.0000
  O   O21       1.0  0.6519575930072394  0.8792016109008032  0.28121084055254914  1.0000
  O   O22       1.0  0.848042406825339  0.3792016110001272  0.7187891600444967  1.0000
  O   O23       1.0  0.3480424064795103  0.12079838914921132  0.7187891600645077  1.0000
  O   O24       1.0  0.15195759386057942  0.6207983890498873  0.28121084056472173  1.0000
  O   O25       1.0  0.0439382062747103  0.9081888323569604  0.4330829586577799  1.0000
  O   O26       1.0  0.4560617940653794  0.4081888322076217  0.5669170419714494  1.0000
  O   O27       1.0  0.9560617932120395  0.09181116769305418  0.5669170419592768  1.0000
  O   O28       1.0  0.543938206620539  0.5918111675937301  0.43308295863776897  1.0000
  S   S1        1.0  0.8610302856857927  0.8211349586506995  0.2673153714411289  1.0000
  S   S2        1.0  0.6389697153459546  0.32113495850136087  0.7326846291480787  1.0000
  S   S3        1.0  0.13896971500012575  0.178865041399315  0.7326846291680895  1.0000
  S   S4        1.0  0.3610302853399639  0.6788650412999909  0.26731537146113976  1.0000
  S   S5        1.0  0.7370025858717071  0.9422005666667295  0.6275922350551086  1.0000
  S   S6        1.0  0.7629974134657699  0.44220056676605357  0.3724077643079074  1.0000
  S   S7        1.0  0.2629974143191098  0.057799433383284936  0.37240776432007994  1.0000
  S   S8        1.0  0.23700258552587838  0.5577994332839609  0.6275922350751195  1.0000
  S   S9        1.0  0.11236109978559046  0.9243263410166956  0.3106884818374757  1.0000
  S   S10       1.0  0.3876389000593978  0.4243263411160197  0.6893115175577238  1.0000
  S   S11       1.0  0.8876389004052263  0.07567365903331888  0.6893115175377128  1.0000
  S   S12       1.0  0.6123611001314192  0.5756736589339948  0.3106884818174648  1.0000
  Cl  Cl1       1.0  0.3058194929266274  0.7487333471768469  0.8493549594445828  1.0000
  Cl  Cl2       1.0  0.19418050691836075  0.24873334727617102  0.15064503995061668  1.0000
  Cl  Cl3       1.0  0.6941805077592909  0.2512666528731675  0.15064504116463565  1.0000
  Cl  Cl4       1.0  0.8058194932724562  0.7512666527738434  0.849354959424572  1.0000
  Cl  Cl5       1.0  0.24815912102220605  0.9994251262859059  0.9998232878681161  1.0000
  Cl  Cl6       1.0  0.2518408793178837  0.49942512613656737  0.00017671276111318716  1.0000
  Cl  Cl7       1.0  0.7518408796637123  0.0005748737641085141  0.00017671274110227518  1.0000
  Cl  Cl8       1.0  0.7481591213680346  0.5005748736647844  0.9998232878481053  1.0000
