data_image0
_chemical_formula_structural       H66C96N16O24Br4
_chemical_formula_sum              "H66 C96 N16 O24 Br4"
_cell_length_a       11.524923828566731
_cell_length_b       13.815968181049424
_cell_length_c       14.875925229095335
_cell_angle_alpha    108.31135363080159
_cell_angle_beta     105.9425479035351
_cell_angle_gamma    91.43939127313129

_space_group_name_H-M_alt    "P 1"
_space_group_IT_number       1

loop_
  _space_group_symop_operation_xyz
  'x, y, z'

loop_
  _atom_site_type_symbol
  _atom_site_label
  _atom_site_symmetry_multiplicity
  _atom_site_fract_x
  _atom_site_fract_y
  _atom_site_fract_z
  _atom_site_occupancy
  H   H1        1.0  0.2812201289583116  0.6783854292742296  0.5609086352365021  1.0000
  H   H2        1.0  0.7187798711043037  0.32161457108986136  0.43909136413440314  1.0000
  H   H3        1.0  0.5486138574215756  0.9311085147221171  0.30858057961847046  1.0000
  H   H4        1.0  0.4513861419965351  0.0688914851710701  0.6914194204785891  1.0000
  H   H5        1.0  0.26326373633104005  0.9588793116017253  0.482521240806412  1.0000
  H   H6        1.0  0.7367362630870709  0.04112068829146191  0.5174787592906475  1.0000
  H   H7        1.0  0.4489341376589877  0.7008413353447819  0.5198980726879386  1.0000
  H   H8        1.0  0.5510658626580266  0.29915866527435797  0.48010192742455476  1.0000
  H   H9        1.0  0.2746601663857414  0.5903459493993763  0.6681264657162795  1.0000
  H   H10       1.0  0.7253398330323695  0.40965405049381076  0.3318735343807799  1.0000
  H   H11       1.0  0.17630694130740016  0.5584018169220224  0.7861591948553077  1.0000
  H   H12       1.0  0.823693058983184  0.44159818297254805  0.2138408052555947  1.0000
  H   H13       1.0  0.021880320191994537  0.8436870194053645  0.8142898280923698  1.0000
  H   H14       1.0  0.9781196800985896  0.1563129804892059  0.18571017201853254  1.0000
  H   H15       1.0  0.12141355581643068  0.8760384075794686  0.6963184408089399  1.0000
  H   H16       1.0  0.8785864444741536  0.1239615923151018  0.3036815593019625  1.0000
  H   H17       1.0  0.733234483962544  0.895522249562482  0.2600827661041109  1.0000
  H   H18       1.0  0.26676551520116787  0.10447775007565593  0.7399172332513604  1.0000
  H   H19       1.0  0.8270689008735819  0.7657552266476547  0.1540848410816448  1.0000
  H   H20       1.0  0.1729310985709589  0.23424477397010188  0.8459151590170058  1.0000
  H   H21       1.0  0.5628643309783637  0.5276134575783482  0.13511028596904176  1.0000
  H   H22       1.0  0.4371356693122204  0.4723865423162223  0.8648897141418607  1.0000
  H   H23       1.0  0.46876407675376536  0.6574639959204879  0.2402569625845611  1.0000
  H   H24       1.0  0.5312359235368188  0.3425360039740826  0.7597430375263414  1.0000
  H   H25       1.0  0.8931710620295027  0.5114696469459209  0.005716358964183946  1.0000
  H   H26       1.0  0.1068289382610814  0.4885303529486496  0.9942836411467184  1.0000
  H   H27       1.0  0.9419271308422775  0.6178342561255844  0.11899621728423806  1.0000
  H   H28       1.0  0.05807286944830655  0.3821657437689861  0.8810037828266644  1.0000
  H   H29       1.0  0.8491257837008249  0.6358966312164009  0.010402041519879855  1.0000
  H   H30       1.0  0.15087421633536027  0.3641033684231204  0.9895979578494343  1.0000
  H   H31       1.0  0.7118135741348326  0.35174114168996345  0.9544702907549646  1.0000
  H   H32       1.0  0.28818642618218177  0.6482588589291765  0.045529709357528994  1.0000
  H   H33       1.0  0.45395418371053653  0.09484380273336208  0.2036592895649958  1.0000
  H   H34       1.0  0.5460458157075743  0.9051561971598252  0.7963407105320638  1.0000
  H   H35       1.0  0.7110543522818702  0.06038551001114641  0.006214565947481327  1.0000
  H   H36       1.0  0.28894564688184166  0.9396144896269919  0.99378543340799  1.0000
  H   H37       1.0  0.529469407803083  0.3243244368284614  0.9842621934556087  1.0000
  H   H38       1.0  0.4705305925139312  0.6756755637906785  0.01573780665688467  1.0000
  H   H39       1.0  0.7172489609036916  0.44898195506740657  0.8475884635306926  1.0000
  H   H40       1.0  0.2827510393868926  0.551018044827164  0.15241153658020992  1.0000
  H   H41       1.0  0.8239475197830953  0.48564469315974035  0.7367183529738102  1.0000
  H   H42       1.0  0.17605247963501547  0.5143553067334469  0.2632816471232493  1.0000
  H   H43       1.0  0.9593916547652226  0.1911172878269588  0.6928370708168733  1.0000
  H   H44       1.0  0.04060834465288824  0.8088827120662285  0.3071629292801863  1.0000
  H   H45       1.0  0.8538871684007775  0.15495668420702402  0.8048987061798699  1.0000
  H   H46       1.0  0.14611283188980662  0.8450433156875465  0.19510129393103248  1.0000
  H   H47       1.0  0.2626064996415925  0.12924444790842016  0.24821895416438108  1.0000
  H   H48       1.0  0.7373935006754219  0.8707555527107198  0.7517810459481125  1.0000
  H   H49       1.0  0.17178187922642862  0.25525043286404925  0.35799750783288364  1.0000
  H   H50       1.0  0.8282181210641555  0.7447495670305212  0.6420024922780188  1.0000
  H   H51       1.0  0.4410022969057  0.4950211229340075  0.38703689257696977  1.0000
  H   H52       1.0  0.5589977033848842  0.5049788769605629  0.6129631075339326  1.0000
  H   H53       1.0  0.530817214429325  0.36792672589933595  0.2749956593332271  1.0000
  H   H54       1.0  0.4691827858612592  0.6320732739952345  0.7250043407776752  1.0000
  H   H55       1.0  0.06429855721840279  0.39597852314001264  0.4041877954629763  1.0000
  H   H56       1.0  0.935701442199708  0.6040214767531746  0.5958122046340832  1.0000
  H   H57       1.0  0.11257443783464094  0.4983546441451552  0.5208802773638055  1.0000
  H   H58       1.0  0.8874255615834697  0.501645355748032  0.4791197227332541  1.0000
  H   H59       1.0  0.16132296093429788  0.37387550792613716  0.5092960603095043  1.0000
  H   H60       1.0  0.8386770393827165  0.626124492693003  0.49070393980298926  1.0000
  H   H61       1.0  0.9138909735406275  0.9075157785171213  0.09073490683250725  1.0000
  H   H62       1.0  0.08610902677638672  0.09248422210201868  0.9092650932799862  1.0000
  H   H63       1.0  0.12600298107486163  0.9953675515096168  0.16316914558530018  1.0000
  H   H64       1.0  0.8739970192157226  0.004632448384953803  0.8368308545256024  1.0000
  H   H65       1.0  0.789271335705419  0.9100255475960468  0.9271497181615048  1.0000
  H   H66       1.0  0.21072866371269178  0.08997445229714048  0.07285028193555475  1.0000
  C   C1        1.0  0.34407152867139873  0.8279510796723903  0.5080126110814757  1.0000
  C   C2        1.0  0.6559284716191855  0.1720489202221802  0.49198738902942674  1.0000
  C   C3        1.0  0.32748180394958365  0.9047791350770356  0.465037920678141  1.0000
  C   C4        1.0  0.6725181954949573  0.09522086554072129  0.5349620794205097  1.0000
  C   C5        1.0  0.3931123835067435  0.9153702291959696  0.40242167564626297  1.0000
  C   C6        1.0  0.6068876167838407  0.08462977069860095  0.5975783244646395  1.0000
  C   C7        1.0  0.48381578218288024  0.8506125159124039  0.38044165009836794  1.0000
  C   C8        1.0  0.5161842181341341  0.14938748470673602  0.6195583500141255  1.0000
  C   C9        1.0  0.49944774174469386  0.7751407467286857  0.42829507597524974  1.0000
  C   C10       1.0  0.5005522585723206  0.22485925389045427  0.5717049241372437  1.0000
  C   C11       1.0  0.4292529531031289  0.76077644651422  0.4866733528685146  1.0000
  C   C12       1.0  0.5707470469330564  0.23922355312530147  0.5133266465007995  1.0000
  C   C13       1.0  0.28084635373590944  0.8344309868745491  0.5849138381673994  1.0000
  C   C14       1.0  0.7191536463002758  0.16556901276497235  0.41508616120191477  1.0000
  C   C15       1.0  0.20467665807499383  0.7352996624630215  0.6737871050703272  1.0000
  C   C16       1.0  0.7953233422420204  0.2647003381561185  0.3262128950421662  1.0000
  C   C17       1.0  0.2194683316499491  0.6461275630377907  0.7003366098687166  1.0000
  C   C18       1.0  0.7805316686406351  0.3538724368567797  0.2996633902421858  1.0000
  C   C19       1.0  0.1633937250684371  0.6273712144794165  0.7660557388110001  1.0000
  C   C20       1.0  0.836606275222147  0.37262878541515404  0.23394426129990234  1.0000
  C   C21       1.0  0.09111521899323802  0.6983302765059252  0.8054761475847151  1.0000
  C   C22       1.0  0.9088847804248728  0.301669723387262  0.19452385251234436  1.0000
  C   C23       1.0  0.07643896356224111  0.7878596834137687  0.781311514006598  1.0000
  C   C24       1.0  0.9235610358558697  0.21214031647941853  0.2186884860904616  1.0000
  C   C25       1.0  0.13266231281697424  0.8064558519475943  0.7153754112947881  1.0000
  C   C26       1.0  0.8673376872192111  0.19354414769192704  0.28462458807452606  1.0000
  C   C27       1.0  0.5983764561764306  0.7846330553359575  0.2598329047829129  1.0000
  C   C28       1.0  0.4016235441141536  0.21536694455861305  0.7401670953279895  1.0000
  C   C29       1.0  0.6979349254682812  0.8146550635534079  0.23340382127180823  1.0000
  C   C30       1.0  0.3020650739498296  0.18534493633977947  0.7665961788252513  1.0000
  C   C31       1.0  0.7497265224614492  0.7411115948100633  0.17380565257365868  1.0000
  C   C32       1.0  0.2502734778555652  0.25888840580907674  0.8261943475388348  1.0000
  C   C33       1.0  0.7033740367110792  0.6366276301197878  0.13920633613206282  1.0000
  C   C34       1.0  0.2966259635795049  0.36337236977478254  0.8607936639788396  1.0000
  C   C35       1.0  0.6013720803522544  0.6079989024267787  0.16415326127813398  1.0000
  C   C36       1.0  0.39862791993832986  0.3920010974677918  0.8358467388327685  1.0000
  C   C37       1.0  0.5489356637277769  0.68069258148414  0.2231837088560423  1.0000
  C   C38       1.0  0.4510643365892374  0.3193074191349999  0.7768162912564512  1.0000
  C   C39       1.0  0.754833763018685  0.5549328679826335  0.07579981517761566  1.0000
  C   C40       1.0  0.24516623639942567  0.4450671319105538  0.9242001849194439  1.0000
  C   C41       1.0  0.8666913313196458  0.5810932510672059  0.05109363442101169  1.0000
  C   C42       1.0  0.13330866897093827  0.4189067488273645  0.9489063656898907  1.0000
  C   C43       1.0  0.6326267364964185  0.19535739624119466  0.9890857256469219  1.0000
  C   C44       1.0  0.36737326292169226  0.8046426036519926  0.010914274450137727  1.0000
  C   C45       1.0  0.6499822202766182  0.11581342656408358  0.028315475312512453  1.0000
  C   C46       1.0  0.35001777916792265  0.8841865740536732  0.9716845247861381  1.0000
  C   C47       1.0  0.5899915790041821  0.10463458432412069  0.09456335977351266  1.0000
  C   C48       1.0  0.4100084210320033  0.8953654153154008  0.9054366395958016  1.0000
  C   C49       1.0  0.5053194522768442  0.17290153701182923  0.12463315784850328  1.0000
  C   C50       1.0  0.4946805477593411  0.8270984626276922  0.8753668415208109  1.0000
  C   C51       1.0  0.48643784384412475  0.2495936040313943  0.07831789319303736  1.0000
  C   C52       1.0  0.5135621564728895  0.7504063965877455  0.9216821069194561  1.0000
  C   C53       1.0  0.5508787611484863  0.26360283400119794  0.016077211978561053  1.0000
  C   C54       1.0  0.4491212391420979  0.7363971658933727  0.9839227881323414  1.0000
  C   C55       1.0  0.6897711898720512  0.19262495331903945  0.9094444352706402  1.0000
  C   C56       1.0  0.3102288095460597  0.8073750465741479  0.09055556482641941  1.0000
  C   C57       1.0  0.7783525815568306  0.29929777506668226  0.8342607291028205  1.0000
  C   C58       1.0  0.22164741873375352  0.7007022248278882  0.16573927100808197  1.0000
  C   C59       1.0  0.7700769910316181  0.3919822818719074  0.813515902778075  1.0000
  C   C60       1.0  0.22992300900456708  0.608017717767614  0.18648409659123927  1.0000
  C   C61       1.0  0.8300289024164956  0.41297502504104733  0.750792940240924  1.0000
  C   C62       1.0  0.16997109700161503  0.5870249748521399  0.2492070598561354  1.0000
  C   C63       1.0  0.8984546656601423  0.34025332670220915  0.7083314466663897  1.0000
  C   C64       1.0  0.10154533463044187  0.6597466731923614  0.2916685534445127  1.0000
  C   C65       1.0  0.9063433288973743  0.2475047649141954  0.7269641534067294  1.0000
  C   C66       1.0  0.09365667052073652  0.7524952349789918  0.2730358466903302  1.0000
  C   C67       1.0  0.8469731129876409  0.22687499137111886  0.7899061325997464  1.0000
  C   C68       1.0  0.1530268873029433  0.7731250085234517  0.21009386751115608  1.0000
  C   C69       1.0  0.39980552067569564  0.24043689390852785  0.2521891118215926  1.0000
  C   C70       1.0  0.6001944796148886  0.7595631059860427  0.7478108882893097  1.0000
  C   C71       1.0  0.29970761150802244  0.20963351664371324  0.27727408584144564  1.0000
  C   C72       1.0  0.700292388808992  0.7903664839754267  0.7227259142710478  1.0000
  C   C73       1.0  0.24946707356111059  0.2812764237264111  0.3396052743179075  1.0000
  C   C74       1.0  0.7505329258570002  0.7187235761667761  0.660394725779152  1.0000
  C   C75       1.0  0.2989674624323813  0.3851636481403895  0.3790147056838014  1.0000
  C   C76       1.0  0.7010325378846329  0.6148363524787505  0.6209852944286921  1.0000
  C   C77       1.0  0.40071900402066973  0.4151118466506979  0.354656064503739  1.0000
  C   C78       1.0  0.599280995397441  0.5848881532424894  0.6453439355933206  1.0000
  C   C79       1.0  0.450916383160695  0.34395304542435484  0.29198364304155144  1.0000
  C   C80       1.0  0.5490836168754902  0.6560469542151667  0.7080163563277628  1.0000
  C   C81       1.0  0.2505385760335592  0.463235564950224  0.44845328815026225  1.0000
  C   C82       1.0  0.749461424257025  0.5367644349443464  0.5515467119606402  1.0000
  C   C83       1.0  0.13993313240977343  0.4315881157301392  0.47222282890676065  1.0000
  C   C84       1.0  0.8600668678808107  0.5684118841644311  0.5277771712041417  1.0000
  C   C85       1.0  0.9518332451312085  0.9478104027650271  0.05091415373683222  1.0000
  C   C86       1.0  0.048166755159375726  0.05218959712954327  0.9490858463740701  1.0000
  C   C87       1.0  0.07039321135840741  0.9979486430877861  0.09195600941158658  1.0000
  C   C88       1.0  0.9296067880597034  0.0020513568054012876  0.908043990685473  1.0000
  C   C89       1.0  0.8814157023732284  0.9499417013212806  0.9589368399437977  1.0000
  C   C90       1.0  0.11858429794378586  0.05005829929785933  0.04106316016869564  1.0000
  C   C91       1.0  0.9263916105076981  0.9162977731174199  0.443561662538402  1.0000
  C   C92       1.0  0.07360838978288615  0.08370222677715053  0.5564383375725004  1.0000
  C   C93       1.0  0.9496100132997797  0.9450823951337534  0.5400356761396363  1.0000
  C   C94       1.0  0.05038998673640558  0.05491760450576797  0.45996432322967784  1.0000
  C   C95       1.0  0.9840800996441993  0.9667489207656649  0.4039187325303514  1.0000
  C   C96       1.0  0.01591989977391138  0.033251079127522364  0.5960812675667081  1.0000
  N   N1        1.0  0.26184795661665416  0.7465575752525345  0.604886883482249  1.0000
  N   N2        1.0  0.7381520434195312  0.2534424243869869  0.3951131158870652  1.0000
  N   N3        1.0  0.5469326583462552  0.8607608249265416  0.3182465753104191  1.0000
  N   N4        1.0  0.45306734081745675  0.1392391747115965  0.6817534240450521  1.0000
  N   N5        1.0  0.6036480905043464  0.7165293762974533  0.4293751291551714  1.0000
  N   N6        1.0  0.39635190891376426  0.283470623595734  0.5706248709418882  1.0000
  N   N7        1.0  0.36472038019142655  0.9962169787650759  0.36026523013127565  1.0000
  N   N8        1.0  0.6352796201255877  0.00378302185406413  0.6397347699812178  1.0000
  N   N9        1.0  0.7200325728621739  0.2848296673669531  0.9012122939050732  1.0000
  N   N10       1.0  0.27996742658236684  0.7151703332508038  0.0987877061935774  1.0000
  N   N11       1.0  0.4496733605445248  0.16430209743232302  0.19169418830886006  1.0000
  N   N12       1.0  0.5503266397460596  0.8356979024622474  0.8083058118020424  1.0000
  N   N13       1.0  0.3843293272897617  0.3095108003182603  0.08254148031418841  1.0000
  N   N14       1.0  0.6156706730272525  0.6904892003008797  0.917458519798305  1.0000
  N   N15       1.0  0.6162659620478349  0.019026926554437024  0.1304376476792325  1.0000
  N   N16       1.0  0.38373403798835043  0.9809730730850844  0.8695623516900817  1.0000
  O   O1        1.0  0.25158597182738307  0.9186585116828827  0.627606569747192  1.0000
  O   O2        1.0  0.7484140284896313  0.0813414889362573  0.37239343036530137  1.0000
  O   O3        1.0  0.585360041365451  0.6234457103338392  0.41639020479287664  1.0000
  O   O4        1.0  0.41463995867073444  0.3765542893056822  0.5836097945764376  1.0000
  O   O5        1.0  0.7045651215210693  0.763568371147436  0.4462708836993108  1.0000
  O   O6        1.0  0.29543487876951496  0.23643162874713444  0.5537291164115916  1.0000
  O   O7        1.0  0.2638221075353975  0.02736232700171217  0.3546823290548337  1.0000
  O   O8        1.0  0.7361778918827132  0.9726376728914752  0.6453176710422258  1.0000
  O   O9        1.0  0.44476953477312814  0.03218600049825653  0.33307786355663843  1.0000
  O   O10       1.0  0.5552304646449826  0.9678139993949306  0.6669221365404211  1.0000
  O   O11       1.0  0.7046893895442639  0.46489977580427555  0.04485356269002235  1.0000
  O   O12       1.0  0.2953106105183515  0.5351002245598153  0.9551464366808828  1.0000
  O   O13       1.0  0.7043705193859661  0.10830301838392582  0.8545801668051989  1.0000
  O   O14       1.0  0.29562948090461816  0.8916969815106446  0.14541983330570363  1.0000
  O   O15       1.0  0.40213463298440005  0.40212753276004554  0.09303602470744436  1.0000
  O   O16       1.0  0.5978653664337107  0.5978724671331416  0.906963975389615  1.0000
  O   O17       1.0  0.2844540255488057  0.2641935989017422  0.07150260274702812  1.0000
  O   O18       1.0  0.7155459747417785  0.7358064009928281  0.9284973973638743  1.0000
  O   O19       1.0  0.7010240011357659  0.9707233045854321  0.1123301253861072  1.0000
  O   O20       1.0  0.2989759991812485  0.02927669603370787  0.8876698747263864  1.0000
  O   O21       1.0  0.550115437288219  0.9958513193811948  0.17687928927650173  1.0000
  O   O22       1.0  0.44988456300236535  0.004148680513375785  0.8231207108344006  1.0000
  O   O23       1.0  0.3021591652898966  0.5529172958306359  0.48626801786058843  1.0000
  O   O24       1.0  0.6978408350271177  0.4470827047885041  0.513731982251905  1.0000
  Br  Br1       1.0  0.009487663841721353  0.6725839690597651  0.8924432962334267  1.0000
  Br  Br2       1.0  0.990512336475293  0.32741603155937476  0.10755670387906684  1.0000
  Br  Br3       1.0  0.9879746440469495  0.36705673863744237  0.626494838349397  1.0000
  Br  Br4       1.0  0.012025355989235821  0.6329432610020791  0.37350516101991726  1.0000
