data_image0
_chemical_formula_structural       H76C84N16O8Cl8
_chemical_formula_sum              "H76 C84 N16 O8 Cl8"
_cell_length_a       9.406662284211688
_cell_length_b       13.782725402468698
_cell_length_c       15.83330412439732
_cell_angle_alpha    90.0
_cell_angle_beta     96.81422606598233
_cell_angle_gamma    90.0

_space_group_name_H-M_alt    "P 1"
_space_group_IT_number       1

loop_
  _space_group_symop_operation_xyz
  'x, y, z'

loop_
  _atom_site_type_symbol
  _atom_site_label
  _atom_site_symmetry_multiplicity
  _atom_site_fract_x
  _atom_site_fract_y
  _atom_site_fract_z
  _atom_site_occupancy
  H   H1        1.0  0.8096516097596446  0.5400128880654382  0.507964656757817  1.0000
  H   H2        1.0  0.190348390451798  0.04001288815499584  0.9920353434190358  1.0000
  H   H3        1.0  0.19034839028062991  0.45998711175544654  0.4920353432269345  1.0000
  H   H4        1.0  0.8096516095884765  0.9599871116658888  0.00796465656571573  1.0000
  H   H5        1.0  0.6395868470006495  0.4200614726723784  0.44808574678860014  1.0000
  H   H6        1.0  0.360413152868457  0.9200614725828208  0.05191425300405012  1.0000
  H   H7        1.0  0.36041315303962507  0.5799385278740522  0.5519142531961514  1.0000
  H   H8        1.0  0.6395868471718176  0.07993852796360987  0.9480857469807014  1.0000
  H   H9        1.0  0.6334875461150419  0.2928631915772631  0.46993098079792606  1.0000
  H   H10       1.0  0.3665124537540646  0.7928631914877053  0.030069018994724164  1.0000
  H   H11       1.0  0.3665124539252327  0.7071368082436216  0.5300690191868255  1.0000
  H   H12       1.0  0.63348754628621  0.2071368083331793  0.9699309809900274  1.0000
  H   H13       1.0  0.0437303823798571  0.4895532242695223  0.11390418521086454  1.0000
  H   H14       1.0  0.9562696174892493  0.9895532241799646  0.38609581458178566  1.0000
  H   H15       1.0  0.9562696176604174  0.5104467762769083  0.8860958147738869  1.0000
  H   H16       1.0  0.04373038255102518  0.01044677636646596  0.6139041854029658  1.0000
  H   H17       1.0  0.29452475621421537  0.35518156511506527  0.38268416437993524  1.0000
  H   H18       1.0  0.7054752437710817  0.8551815650255077  0.11731583604875521  1.0000
  H   H19       1.0  0.7054752438260592  0.6448184347058195  0.6173158356048162  1.0000
  H   H20       1.0  0.29452475626919283  0.14481843479537707  0.8826841639359962  1.0000
  H   H21       1.0  0.8579273400882478  0.1996844498916767  0.4955894190719431  1.0000
  H   H22       1.0  0.1420726597808587  0.6996844498021191  0.004410580720707096  1.0000
  H   H23       1.0  0.14207265995202678  0.8003155499292081  0.5044105809128083  1.0000
  H   H24       1.0  0.8579273402594159  0.3003155500187657  0.9955894192640444  1.0000
  H   H25       1.0  0.02278694940699228  0.2654350553443313  0.4949750234531189  1.0000
  H   H26       1.0  0.9772130505783048  0.7654350559803196  0.005024976975571559  1.0000
  H   H27       1.0  0.9772130506332821  0.7345649444765534  0.5050249765316326  1.0000
  H   H28       1.0  0.022786949461969765  0.234564944566111  0.99497502300918  1.0000
  H   H29       1.0  0.5807932248227883  0.37684246608219374  0.5959689863852419  1.0000
  H   H30       1.0  0.4192067753886543  0.876842465992636  0.9040310137916109  1.0000
  H   H31       1.0  0.41920677521748617  0.6231575337386909  0.4040310135995096  1.0000
  H   H32       1.0  0.5807932246516202  0.12315753382824862  0.09596898619314065  1.0000
  H   H33       1.0  0.736781321062846  0.4511632517097246  0.5978675770189822  1.0000
  H   H34       1.0  0.263218679032406  0.9511632516201669  0.9021324225218301  1.0000
  H   H35       1.0  0.2632186789774285  0.5488367481111601  0.4021324229657692  1.0000
  H   H36       1.0  0.7367813210078685  0.048836748200717754  0.0978675774629213  1.0000
  H   H37       1.0  0.9844353973836589  0.3496633234190959  0.6258807485822461  1.0000
  H   H38       1.0  0.015564602827783698  0.8496633233295382  0.8741192515946067  1.0000
  H   H39       1.0  0.015564602656615611  0.6503366764017888  0.3741192514025054  1.0000
  H   H40       1.0  0.9844353972124908  0.1503366764913465  0.1258807483901448  1.0000
  H   H41       1.0  0.9588018260464137  0.22271475128207843  0.6423708575089797  1.0000
  H   H42       1.0  0.04119817416502891  0.7227147511925208  0.857629142667873  1.0000
  H   H43       1.0  0.0411981739938608  0.7772852492643522  0.3576291424757717  1.0000
  H   H44       1.0  0.9588018258752457  0.27728524935390986  0.1423708573168785  1.0000
  H   H45       1.0  0.6775751371763272  0.6927275514238908  0.46419199529072547  1.0000
  H   H46       1.0  0.3224248626927792  0.19272755151344845  0.03580800450192469  1.0000
  H   H47       1.0  0.3224248628639472  0.3072724483969939  0.5358080046940259  1.0000
  H   H48       1.0  0.6775751373474954  0.8072724483074363  0.9641919954828269  1.0000
  H   H49       1.0  0.7243889549112439  0.6295965497829419  0.20279701715869028  1.0000
  H   H50       1.0  0.27561104495786254  0.12959654987249947  0.29720298263395994  1.0000
  H   H51       1.0  0.2756110440647148  0.37040345003794284  0.7972029828195785  1.0000
  H   H52       1.0  0.724388955082412  0.8704034506739312  0.7027970173507916  1.0000
  H   H53       1.0  0.6267105735333374  0.7327365071200719  0.31161391361596014  1.0000
  H   H54       1.0  0.37328942633576906  0.23273650720962955  0.18838608617669006  1.0000
  H   H55       1.0  0.37328942650693714  0.26726349270081284  0.6883860863687913  1.0000
  H   H56       1.0  0.6267105726401898  0.7672634933368011  0.8116139138015787  1.0000
  H   H57       1.0  0.30573779891707004  0.4588335394730624  0.12638105374552197  1.0000
  H   H58       1.0  0.6942622009520365  0.9588335393835047  0.3736189460471282  1.0000
  H   H59       1.0  0.6942622011232046  0.5411664603478223  0.8736189462392295  1.0000
  H   H60       1.0  0.3057377990882381  0.04116646043738001  0.6263810539376232  1.0000
  H   H61       1.0  0.7811564444375392  0.21375154869386806  0.7346040169448449  1.0000
  H   H62       1.0  0.21884355470958763  0.7137515486043104  0.7653959832255253  1.0000
  H   H63       1.0  0.21884355560273536  0.7862484511270167  0.2653959830399067  1.0000
  H   H64       1.0  0.781156445330687  0.2862484512165743  0.23460401675922624  1.0000
  H   H65       1.0  0.6307239006450691  0.29377318649000744  0.7200570150924439  1.0000
  H   H66       1.0  0.3692760995663734  0.7937731864004499  0.7799429850844087  1.0000
  H   H67       1.0  0.36927609939520534  0.7062268140564232  0.2799429848923075  1.0000
  H   H68       1.0  0.6307239004739011  0.2062268141459808  0.22005701490034266  1.0000
  H   H69       1.0  0.8039158838502659  0.33994929037480265  0.7597342527176414  1.0000
  H   H70       1.0  0.1960841163611767  0.839949290285245  0.7402657474592114  1.0000
  H   H71       1.0  0.19608411619000865  0.660050710171628  0.24026574726711017  1.0000
  H   H72       1.0  0.8039158836790977  0.16005070953563968  0.25973425252554  1.0000
  H   H73       1.0  0.8330157016521107  0.47719299978376956  0.17031526846306996  1.0000
  H   H74       1.0  0.16698429833318634  0.9771929996942119  0.3296847319656205  1.0000
  H   H75       1.0  0.16698429838816384  0.5228070007626611  0.8296847315216815  1.0000
  H   H76       1.0  0.8330157017070882  0.0228070001266728  0.6703152680191311  1.0000
  C   C1        1.0  0.374338355570324  0.05780400223727155  0.47912219691931374  1.0000
  C   C2        1.0  0.6256616442987823  0.557804002147714  0.020877802873336494  1.0000
  C   C3        1.0  0.6256616444699505  0.9421959983091591  0.5208778030654377  1.0000
  C   C4        1.0  0.3743383557414921  0.4421959983987167  0.9791221971114149  1.0000
  C   C5        1.0  0.49999472504005404  0.10515308312972765  0.5172339291792063  1.0000
  C   C6        1.0  0.5000052741070729  0.60515308304017  0.9827660709911638  1.0000
  C   C7        1.0  0.5000052739359047  0.894846917416703  0.4827660707990624  1.0000
  C   C8        1.0  0.4999947259332017  0.3948469175062606  0.01723392899358781  1.0000
  C   C9        1.0  0.3643358388323046  0.9578744874098195  0.46013380447937036  1.0000
  C   C10       1.0  0.6356641611529925  0.45787448749937704  0.03986619594932004  1.0000
  C   C11       1.0  0.6356641613241605  0.0421255124110653  0.5398661961414213  1.0000
  C   C12       1.0  0.36433583888728205  0.5421255130470536  0.9601338040354316  1.0000
  C   C13       1.0  0.7874924425940083  0.5587912655228925  0.44096608775973917  1.0000
  C   C14       1.0  0.21250755727509815  0.05879126561245008  0.05903391203291109  1.0000
  C   C15       1.0  0.21250755744626623  0.4412087342979923  0.5590339122250124  1.0000
  C   C16       1.0  0.7874924427651764  0.9412087342084346  0.9409660879518403  1.0000
  C   C17       1.0  0.6926813986185615  0.36075992917259986  0.48525215951823436  1.0000
  C   C18       1.0  0.30731860136673544  0.8607599290830422  0.01474784091045607  1.0000
  C   C19       1.0  0.3073186014217129  0.6392400706482848  0.5147478404665171  1.0000
  C   C20       1.0  0.6926813986735391  0.1392400707378425  0.9852521590742954  1.0000
  C   C21       1.0  0.021986348315088267  0.44707267975434767  0.24258603266979634  1.0000
  C   C22       1.0  0.9780136516702088  0.94707267966479  0.25741396775889414  1.0000
  C   C23       1.0  0.9780136517251862  0.5529273200665371  0.7574139673149551  1.0000
  C   C24       1.0  0.021986348370065738  0.05292732015609471  0.7425860322258574  1.0000
  C   C25       1.0  0.091718944648408  0.4052558044143828  0.3197064723873466  1.0000
  C   C26       1.0  0.9082810552206985  0.9052558050503711  0.18029352740530358  1.0000
  C   C27       1.0  0.9082810553918664  0.5947441954065018  0.6802935275974048  1.0000
  C   C28       1.0  0.09171894481957608  0.09474419549605953  0.8197064725794478  1.0000
  C   C29       1.0  0.9013172857559417  0.4016137272101886  0.40674964849322287  1.0000
  C   C30       1.0  0.09868271422935529  0.901613727120631  0.09325035193546759  1.0000
  C   C31       1.0  0.09868271428433277  0.5983862733362421  0.5932503514915287  1.0000
  C   C32       1.0  0.9013172858109192  0.09838627270025377  0.9067496480492839  1.0000
  C   C33       1.0  0.8348461590923283  0.4961284833241479  0.3803277339888233  1.0000
  C   C34       1.0  0.16515384089296872  0.9961284839601361  0.11967226643986713  1.0000
  C   C35       1.0  0.16515384094794616  0.5038715164967369  0.6196722659959282  1.0000
  C   C36       1.0  0.8348461591473059  0.0038715165862944927  0.8803277335448842  1.0000
  C   C37       1.0  0.10001945903064761  0.4621179863932551  0.17329016148223095  1.0000
  C   C38       1.0  0.8999805408384588  0.9621179863036975  0.3267098383104193  1.0000
  C   C39       1.0  0.8999805410096269  0.5378820134276296  0.8267098385025204  1.0000
  C   C40       1.0  0.10001945813749988  0.037882013517187306  0.6732901616678494  1.0000
  C   C41       1.0  0.8164398745596555  0.524112832481312  0.29398533215221806  1.0000
  C   C42       1.0  0.183560125309451  0.024112831845323767  0.20601466764043214  1.0000
  C   C43       1.0  0.18356012548061915  0.47588716806511855  0.7060146678325335  1.0000
  C   C44       1.0  0.8164398747308236  0.975887167975561  0.7939853323443193  1.0000
  C   C45       1.0  0.24120837290994884  0.38827253200890677  0.32496365801374316  1.0000
  C   C46       1.0  0.7587916270753482  0.8882725319193492  0.1750363424149473  1.0000
  C   C47       1.0  0.7587916271303257  0.611727467811978  0.6750363419710084  1.0000
  C   C48       1.0  0.24120837296492625  0.11172746790153555  0.8249636575698042  1.0000
  C   C49       1.0  0.3162443465912788  0.4105785709832401  0.2572934548463316  1.0000
  C   C50       1.0  0.6837556532778276  0.9105785708936824  0.2427065449463186  1.0000
  C   C51       1.0  0.6837556523846801  0.5894214288376447  0.7427065451319371  1.0000
  C   C52       1.0  0.31624434676244684  0.08942142892720228  0.7572934550384328  1.0000
  C   C53       1.0  0.9134751098187505  0.2687356957236174  0.5116663567540152  1.0000
  C   C54       1.0  0.0865248903926922  0.7687356956340599  0.9883336434228376  1.0000
  C   C55       1.0  0.0865248902215241  0.7312643040972673  0.48833364323073625  1.0000
  C   C56       1.0  0.913475109763773  0.23126430418682495  0.011666357197954204  1.0000
  C   C57       1.0  0.6917934574524404  0.3779407387066551  0.5809378272806294  1.0000
  C   C58       1.0  0.3082065427590022  0.8779407386170975  0.9190621728962234  1.0000
  C   C59       1.0  0.30820654258783414  0.6220592618397754  0.4190621727041221  1.0000
  C   C60       1.0  0.6917934572812723  0.12205926192933313  0.08093782708852815  1.0000
  C   C61       1.0  0.9136974406109908  0.28653727000123114  0.6074437260518739  1.0000
  C   C62       1.0  0.08630255960045176  0.7865372699116734  0.8925562741249788  1.0000
  C   C63       1.0  0.08630255942928367  0.7134627298196535  0.39255627393287745  1.0000
  C   C64       1.0  0.9136974404398229  0.21346272990921122  0.10744372585977273  1.0000
  C   C65       1.0  0.7141439401569133  0.6438774147245553  0.41720893130621695  1.0000
  C   C66       1.0  0.285856059712193  0.143877414088567  0.08279106848643321  1.0000
  C   C67       1.0  0.28585605988336105  0.3561225858218754  0.5827910686785345  1.0000
  C   C68       1.0  0.7141439403280816  0.8561225857323177  0.9172089314983183  1.0000
  C   C69       1.0  0.7388470694396508  0.608817803081023  0.269687154132513  1.0000
  C   C70       1.0  0.26115293042945564  0.1088178031705806  0.2303128456601372  1.0000
  C   C71       1.0  0.2611529306006238  0.39118219673986176  0.7303128458522384  1.0000
  C   C72       1.0  0.7388470696108189  0.8911821966503042  0.7696871543246143  1.0000
  C   C73       1.0  0.6862976168404311  0.6669710475660677  0.3307945021110395  1.0000
  C   C74       1.0  0.3137023831448659  0.16697104765562545  0.16920549831765097  1.0000
  C   C75       1.0  0.31370238319984334  0.33302895225481693  0.669205497873712  1.0000
  C   C76       1.0  0.6862976170115993  0.8330289528908053  0.8307945023031408  1.0000
  C   C77       1.0  0.24621984024282462  0.44473921093298957  0.1799795064555753  1.0000
  C   C78       1.0  0.7537801606905976  0.9447392108434319  0.3200204933435576  1.0000
  C   C79       1.0  0.75378015979745  0.5552607888878951  0.8200204935291762  1.0000
  C   C80       1.0  0.2462198393496769  0.055260788977452735  0.6799795066411939  1.0000
  C   C81       1.0  0.7457448450743906  0.2872699784972004  0.7151942984804555  1.0000
  C   C82       1.0  0.25425515407273613  0.7872699784076427  0.7848057016899145  1.0000
  C   C83       1.0  0.25425515496588386  0.7127300213236842  0.28480570150429607  1.0000
  C   C84       1.0  0.7457448459675384  0.212730021413242  0.21519429829483694  1.0000
  N   N1        1.0  0.7712997311220033  0.30334872297833954  0.6286528265619263  1.0000
  N   N2        1.0  0.22870026897324866  0.8033487228887819  0.8713471729788862  1.0000
  N   N3        1.0  0.22870026891827114  0.6966512775680911  0.37134717342282514  1.0000
  N   N4        1.0  0.771299731067026  0.19665127693210283  0.1286528270058653  1.0000
  N   N5        1.0  0.8384990704359947  0.3481068025298269  0.4646945858492902  1.0000
  N   N6        1.0  0.1615009294331118  0.8481068024402693  0.035305413943360085  1.0000
  N   N7        1.0  0.1615009296042799  0.6518931972910579  0.5353054141354614  1.0000
  N   N8        1.0  0.8384990706071627  0.15189319738061544  0.9646945860413914  1.0000
  N   N9        1.0  0.022758528609065482  0.3694466327456505  0.3841866543600337  1.0000
  N   N10       1.0  0.977241471260041  0.8694466326560929  0.11581334543261652  1.0000
  N   N11       1.0  0.9772414714312091  0.6305533670752342  0.6158133456247178  1.0000
  N   N12       1.0  0.022758528780233576  0.1305533671647919  0.884186654552135  1.0000
  N   N13       1.0  0.8773925870442366  0.46990990104467545  0.23297842188949014  1.0000
  N   N14       1.0  0.12260741294106028  0.9699099009551179  0.26702157853920033  1.0000
  N   N15       1.0  0.12260741299603774  0.5300900995017551  0.7670215780952613  1.0000
  N   N16       1.0  0.8773925870992143  0.030090098865766902  0.7329784214455511  1.0000
  O   O1        1.0  0.5067444914389644  0.1935654721469054  0.5342008114059889  1.0000
  O   O2        1.0  0.49325550770816234  0.6935654720573478  0.9657991887643811  1.0000
  O   O3        1.0  0.49325550860131007  0.8064345276739794  0.46579918857876257  1.0000
  O   O4        1.0  0.5067444923321122  0.30643452776353697  0.0342008112203704  1.0000
  O   O5        1.0  0.2524480390538516  0.9171482483236472  0.42588880167285215  1.0000
  O   O6        1.0  0.7475519608152549  0.41714824841320475  0.07411119811979808  1.0000
  O   O7        1.0  0.747551960986423  0.08285175149723756  0.5741111983118994  1.0000
  O   O8        1.0  0.25244803922501974  0.58285175140768  0.9258888018649534  1.0000
  Cl  Cl1       1.0  0.22083358300047992  0.12795953401814905  0.45633979830542515  1.0000
  Cl  Cl2       1.0  0.7791664179329423  0.6279595339285914  0.043660201493707834  1.0000
  Cl  Cl3       1.0  0.7791664170397946  0.8720404658027356  0.5436602016793264  1.0000
  Cl  Cl4       1.0  0.22083358210733223  0.37204046589229334  0.9563397984910437  1.0000
  Cl  Cl5       1.0  0.5005714720283752  0.3956601253205868  0.2676162822570723  1.0000
  Cl  Cl6       1.0  0.4994285278407313  0.8956601252310292  0.23238371753557788  1.0000
  Cl  Cl7       1.0  0.49942852801189935  0.6043398745002979  0.7323837177276792  1.0000
  Cl  Cl8       1.0  0.5005714721995433  0.10433987458985552  0.7676162824491736  1.0000
