data_image0
_chemical_formula_structural       H78C84N12O24S6Br6
_chemical_formula_sum              "H78 C84 N12 O24 S6 Br6"
_cell_length_a       8.79533178762597
_cell_length_b       15.457799774921169
_cell_length_c       17.04064006622094
_cell_angle_alpha    79.85815146526431
_cell_angle_beta     77.21771105355946
_cell_angle_gamma    84.69160175560009

_space_group_name_H-M_alt    "P 1"
_space_group_IT_number       1

loop_
  _space_group_symop_operation_xyz
  'x, y, z'

loop_
  _atom_site_type_symbol
  _atom_site_label
  _atom_site_symmetry_multiplicity
  _atom_site_fract_x
  _atom_site_fract_y
  _atom_site_fract_z
  _atom_site_occupancy
  H   H1        1.0  0.3259276039241998  0.3191114608212162  0.04023591732795524  1.0000
  H   H2        1.0  0.6740723959463168  0.6808885388300275  0.9597640826316316  1.0000
  H   H3        1.0  0.39032248908874406  0.4412477722645527  0.10409713470736802  1.0000
  H   H4        1.0  0.6096775106786886  0.5587522280367262  0.8959028652503117  1.0000
  H   H5        1.0  0.18126288417293906  0.5466246771822684  0.15937826224400012  1.0000
  H   H6        1.0  0.8187371167330324  0.45337532311858936  0.8406217377101239  1.0000
  H   H7        1.0  0.9045308542800503  0.533972555189756  0.15083977492560616  1.0000
  H   H8        1.0  0.09546914559046646  0.46602744446148775  0.8491602250339807  1.0000
  H   H9        1.0  0.5558603722609151  0.16828399195278496  0.8208481512854676  1.0000
  H   H10       1.0  0.44413962840720017  0.8317160082446167  0.1791518492782675  1.0000
  H   H11       1.0  0.5397912162434639  0.2371189003145101  0.6792883548027497  1.0000
  H   H12       1.0  0.4602087835239688  0.7628810999867688  0.32071164515492995  1.0000
  H   H13       1.0  0.3728354590537234  0.47932912404323297  0.7728229364518503  1.0000
  H   H14       1.0  0.6271645408167933  0.5206708756080108  0.22717706350773653  1.0000
  H   H15       1.0  0.3909880944980457  0.4008837722627904  0.9102531499038216  1.0000
  H   H16       1.0  0.6090119053724709  0.5991162273884534  0.08974685005576537  1.0000
  H   H17       1.0  0.5252771522591507  0.46409155187420315  0.6125963172985268  1.0000
  H   H18       1.0  0.474722847508282  0.5359084484270756  0.3874036826591531  1.0000
  H   H19       1.0  0.32578816841046  0.4483885618675601  0.634039194531873  1.0000
  H   H20       1.0  0.6742118324955114  0.5516114384332975  0.3659608054222511  1.0000
  H   H21       1.0  0.45717910852151394  0.39356828427567114  0.5043079788618325  1.0000
  H   H22       1.0  0.5428208923844574  0.6064317160251865  0.49569202109229155  1.0000
  H   H23       1.0  0.37903282742062944  0.3045276531716119  0.5778365234247128  1.0000
  H   H24       1.0  0.6209671724498873  0.695472346479632  0.4221634765348741  1.0000
  H   H25       1.0  0.5821444281322573  0.3199624216695337  0.5562269623919162  1.0000
  H   H26       1.0  0.4178555716351755  0.6800375786317452  0.44377303756576364  1.0000
  H   H27       1.0  0.5553975454429722  0.8786623866194017  0.8229989295949703  1.0000
  H   H28       1.0  0.44460245442754454  0.12133761303184198  0.17700107036461646  1.0000
  H   H29       1.0  0.8333810837550542  0.8923292350663803  0.8285682469192441  1.0000
  H   H30       1.0  0.16661891601237855  0.10767076523489866  0.17143175303843572  1.0000
  H   H31       1.0  0.04217979528296778  0.7891733984722247  0.7691605525011367  1.0000
  H   H32       1.0  0.9578202044844649  0.2108266018290541  0.23083944745654306  1.0000
  H   H33       1.0  0.9761562226477521  0.668977609675927  0.703241021772434  1.0000
  H   H34       1.0  0.02384377711968057  0.3310223906253518  0.2967589781852459  1.0000
  H   H35       1.0  0.18823871627078773  0.482857564056906  0.5180936066399522  1.0000
  H   H36       1.0  0.8117612834966449  0.5171424362443728  0.4819063933177276  1.0000
  H   H37       1.0  0.18248352748104216  0.5265468192471274  0.3697170701044575  1.0000
  H   H38       1.0  0.8175164723894747  0.4734531804041162  0.6302829298551293  1.0000
  H   H39       1.0  0.04165129900264473  0.790465314377192  0.4180898284626097  1.0000
  H   H40       1.0  0.958348700867872  0.20953468527405175  0.5819101714969771  1.0000
  H   H41       1.0  0.05125436996077276  0.737461974577562  0.5634426498395566  1.0000
  H   H42       1.0  0.9487456299097439  0.2625380250736816  0.4365573501200302  1.0000
  H   H43       1.0  0.1998001271013926  0.6585973656571299  0.2549539746904022  1.0000
  H   H44       1.0  0.800199872769124  0.34140263399411375  0.7450460252691847  1.0000
  H   H45       1.0  0.1070378826747666  0.7613034022807925  0.27603066976093815  1.0000
  H   H46       1.0  0.8929621183342885  0.23869659737003016  0.7239693301950931  1.0000
  H   H47       1.0  0.9469905929030108  0.6776837569299436  0.21131103705712764  1.0000
  H   H48       1.0  0.05300940696750598  0.32231624272130005  0.7886889629024592  1.0000
  H   H49       1.0  0.8460304903871623  0.6962602797144762  0.31013128758815256  1.0000
  H   H50       1.0  0.1539695093802706  0.3037397205868026  0.6898687123695272  1.0000
  H   H51       1.0  0.9361309813508665  0.5906419557228034  0.29557418123062523  1.0000
  H   H52       1.0  0.06386901942033273  0.4093580438245631  0.7044258193350169  1.0000
  H   H53       1.0  0.2288529174273696  0.19318045087804822  0.485237482556255  1.0000
  H   H54       1.0  0.7711470823400632  0.8068195494232306  0.5147625174014248  1.0000
  H   H55       1.0  0.5078382276199559  0.20517975217757228  0.48996223369215597  1.0000
  H   H56       1.0  0.4921617721474769  0.7948202481237067  0.5100377662655239  1.0000
  H   H57       1.0  0.7147786272783039  0.10224067399334252  0.42918279555941313  1.0000
  H   H58       1.0  0.28522137259221275  0.8977593256579013  0.5708172044001737  1.0000
  H   H59       1.0  0.6453264803489415  0.982051335973841  0.36398200384801005  1.0000
  H   H60       1.0  0.3546735195215751  0.017948663677402776  0.6360179961115768  1.0000
  H   H61       1.0  0.8051070764555373  0.8088805227355411  0.1727176712833416  1.0000
  H   H62       1.0  0.19489292331189556  0.19111947756573772  0.8272823286743383  1.0000
  H   H63       1.0  0.7516108711163092  0.8631088156990562  0.03330712791106438  1.0000
  H   H64       1.0  0.2483891286511236  0.13689118460222288  0.9666928720466154  1.0000
  H   H65       1.0  0.7076125085071169  0.12649167424835164  0.09150125505359628  1.0000
  H   H66       1.0  0.2923874925019385  0.873508325402471  0.9084987449024349  1.0000
  H   H67       1.0  0.7506575715193885  0.06238462096251885  0.2291290811335907  1.0000
  H   H68       1.0  0.24934242948966676  0.9376153786883038  0.7708709188224405  1.0000
  H   H69       1.0  0.605104085702454  0.09124824880406789  0.969516814687376  1.0000
  H   H70       1.0  0.39489591416806263  0.9087517508471759  0.030483185272210805  1.0000
  H   H71       1.0  0.6437335263529722  0.9840350872366408  0.9436235403162565  1.0000
  H   H72       1.0  0.35626647341446055  0.01596491306463798  0.056376459641423245  1.0000
  H   H73       1.0  0.8231647777536236  0.08877324684138865  0.8464941050155439  1.0000
  H   H74       1.0  0.17683522201380908  0.9112267534598902  0.15350589494213593  1.0000
  H   H75       1.0  0.9318160124816013  0.009976505648816459  0.9047157011941777  1.0000
  H   H76       1.0  0.06818398728583154  0.9900234946524623  0.09528429876350214  1.0000
  H   H77       1.0  0.8909226813521035  0.11798990059737018  0.9291461770992172  1.0000
  H   H78       1.0  0.10907731841532912  0.8820100997039086  0.07085382285846258  1.0000
  C   C1        1.0  0.8056261819962194  0.4030116433448506  0.07662661544511384  1.0000
  C   C2        1.0  0.1943738178742973  0.5969883563063931  0.9233733845144729  1.0000
  C   C3        1.0  0.9610569334829085  0.41972967745328843  0.09082347553159223  1.0000
  C   C4        1.0  0.038943066284524326  0.5802703228479903  0.9091765244260875  1.0000
  C   C5        1.0  0.08094056735876905  0.3611741723360389  0.05990475626701435  1.0000
  C   C6        1.0  0.9190594324086636  0.63882582796524  0.9400952436906653  1.0000
  C   C7        1.0  0.2354405040734078  0.3662876619289928  0.0641975312640609  1.0000
  C   C8        1.0  0.7645594956940249  0.6337123383722861  0.9358024686936188  1.0000
  C   C9        1.0  0.26983245779244297  0.43468654177044674  0.10029789709863057  1.0000
  C   C10       1.0  0.7301675419749899  0.5653134585308321  0.8997021028590492  1.0000
  C   C11       1.0  0.15134560021480484  0.4940929651319217  0.13152724879184882  1.0000
  C   C12       1.0  0.8486543993147718  0.5059070350659012  0.8684727517754418  1.0000
  C   C13       1.0  0.9959957805379097  0.48699240110140124  0.12757317772952478  1.0000
  C   C14       1.0  0.004004219332606987  0.5130075985498425  0.8724268222300621  1.0000
  C   C15       1.0  0.5148889738522767  0.2364569718240693  0.80599598792034  1.0000
  C   C16       1.0  0.48511102591515615  0.7635430284772096  0.19400401203733977  1.0000
  C   C17       1.0  0.5044813529286173  0.2766680863884358  0.7278985092979603  1.0000
  C   C18       1.0  0.49551864694189945  0.7233319132628079  0.27210149066162653  1.0000
  C   C19       1.0  0.4521616139636475  0.365112875861395  0.7128155322005131  1.0000
  C   C20       1.0  0.5478383858037853  0.6348871244398838  0.28718446775716666  1.0000
  C   C21       1.0  0.412078662025261  0.4100831201647164  0.7798916898448106  1.0000
  C   C22       1.0  0.5879213377421717  0.5899168801365625  0.22010831011286913  1.0000
  C   C23       1.0  0.4218221420993454  0.368105010233227  0.8570800102205582  1.0000
  C   C24       1.0  0.5781778589097099  0.6318949894175957  0.14291998973547299  1.0000
  C   C25       1.0  0.4404981053051081  0.4122586141060931  0.6292559420867013  1.0000
  C   C26       1.0  0.5595018945654084  0.5877413855451507  0.37074405787288567  1.0000
  C   C27       1.0  0.4663909545091969  0.35452212031593516  0.5634617777099177  1.0000
  C   C28       1.0  0.5336090453613198  0.6454778793353085  0.43653822224966915  1.0000
  C   C29       1.0  0.4541734699415455  0.7490941585419368  0.7482294509592403  1.0000
  C   C30       1.0  0.5458265298258872  0.25090584175934194  0.2517705489984395  1.0000
  C   C31       1.0  0.6107343512061217  0.7663560862480358  0.7604571569282064  1.0000
  C   C32       1.0  0.3892656486643951  0.23364391340320792  0.23954284303138038  1.0000
  C   C33       1.0  0.7307196465957219  0.7094558239332169  0.7267327434685757  1.0000
  C   C34       1.0  0.26928035431024955  0.29054417636764085  0.2732672564855484  1.0000
  C   C35       1.0  0.646770481050071  0.8326716504999202  0.7979487193418183  1.0000
  C   C36       1.0  0.3532295187173619  0.16732834980135874  0.20205128061586133  1.0000
  C   C37       1.0  0.8028539902940555  0.8403861378333719  0.8002074320140082  1.0000
  C   C38       1.0  0.19714600957646125  0.15961386181787182  0.1997925679455786  1.0000
  C   C39       1.0  0.9211398744320214  0.782410303189785  0.766466195346342  1.0000
  C   C40       1.0  0.07886012533541115  0.21758969711149384  0.23353380461133785  1.0000
  C   C41       1.0  0.8859622698566788  0.7151493444163561  0.7291951190694903  1.0000
  C   C42       1.0  0.11403772991075381  0.2848506558849227  0.2708048808881895  1.0000
  C   C43       1.0  0.1555344047097309  0.5493212997694668  0.49173977202657976  1.0000
  C   C44       1.0  0.8444655951607857  0.4506786998817771  0.5082602279330071  1.0000
  C   C45       1.0  0.15097882537814436  0.5752269364291139  0.4104746376274185  1.0000
  C   C46       1.0  0.849021175527827  0.42477306387174396  0.5895253623267056  1.0000
  C   C47       1.0  0.10882986158537616  0.6625830308997849  0.3808256140618674  1.0000
  C   C48       1.0  0.8911701381820566  0.33741696940149407  0.6191743858958124  1.0000
  C   C49       1.0  0.07265639569320248  0.7213034412572241  0.4371040754960635  1.0000
  C   C50       1.0  0.9273436038363743  0.27869655894059875  0.5628959250712272  1.0000
  C   C51       1.0  0.07738671652336947  0.6934923405938606  0.5183049966039485  1.0000
  C   C52       1.0  0.9226132832440634  0.30650765970741845  0.4816950033537313  1.0000
  C   C53       1.0  0.09927620051817727  0.689684083931767  0.29293239116661907  1.0000
  C   C54       1.0  0.900723800490878  0.31031591571905565  0.7070676087894122  1.0000
  C   C55       1.0  0.94776350077534  0.6618436587643084  0.27650303135268817  1.0000
  C   C56       1.0  0.05223649909517667  0.33815634088693536  0.7234969686068987  1.0000
  C   C57       1.0  0.12441634874205165  0.0655864393758163  0.40923440854767157  1.0000
  C   C58       1.0  0.8755836511284649  0.9344135602754274  0.5907655914119153  1.0000
  C   C59       1.0  0.28178219918026143  0.08176659727778486  0.4214132103962947  1.0000
  C   C60       1.0  0.7182178005871716  0.918233403023494  0.578586789561385  1.0000
  C   C61       1.0  0.40065886719459093  0.02435213461836019  0.3876131330435364  1.0000
  C   C62       1.0  0.5993411325728417  0.9756478656829186  0.6123868669141435  1.0000
  C   C63       1.0  0.31938880965344224  0.14727875603312746  0.4592901060363302  1.0000
  C   C64       1.0  0.6806111901139906  0.8527212442681514  0.5407098939213496  1.0000
  C   C65       1.0  0.47601798773574727  0.1540315711478306  0.46117265472827085  1.0000
  C   C66       1.0  0.5239820120316855  0.8459684291534483  0.5388273452294089  1.0000
  C   C67       1.0  0.5933064213029022  0.09583087270283287  0.4269386547338181  1.0000
  C   C68       1.0  0.40669357822667446  0.90416912749499  0.5730613458334726  1.0000
  C   C69       1.0  0.5563034483878  0.02886927950945502  0.3898890789283771  1.0000
  C   C70       1.0  0.4436965513796326  0.9711307207918238  0.6101109210293028  1.0000
  C   C71       1.0  0.7784334312771798  0.8777076683157014  0.15112523014173682  1.0000
  C   C72       1.0  0.22156656859333693  0.1222923313355424  0.84887476981785  1.0000
  C   C73       1.0  0.7497232425556521  0.9096843542522279  0.07452146066361626  1.0000
  C   C74       1.0  0.2502767583503191  0.09031564604862975  0.9254785392905079  1.0000
  C   C75       1.0  0.7198091621487662  0.9998821081212499  0.05043627974463997  1.0000
  C   C76       1.0  0.2801908377217506  0.00011789152999383646  0.949563720214947  1.0000
  C   C77       1.0  0.7247640624173327  0.05530353500664722  0.1066024906022007  1.0000
  C   C78       1.0  0.2752359382507827  0.9446964651907547  0.8933975099615343  1.0000
  C   C79       1.0  0.7505939304129113  0.02134173767171072  0.18352233964816136  1.0000
  C   C80       1.0  0.2494060694576053  0.9786582619795329  0.8164776603114255  1.0000
  C   C81       1.0  0.6919075964043784  0.03535930457223401  0.9666442746247099  1.0000
  C   C82       1.0  0.30809240336305427  0.9646406957290448  0.03335572533296982  1.0000
  C   C83       1.0  0.8435957927547826  0.06507916169975297  0.9080757283066613  1.0000
  C   C84       1.0  0.15640420677479405  0.9349208384980697  0.0919242722606295  1.0000
  N   N1        1.0  0.8238440859256978  0.3329697300230045  0.034114662173231045  1.0000
  N   N2        1.0  0.1761559147424176  0.6670302701743971  0.9658853383905041  1.0000
  N   N3        1.0  0.47100677521343143  0.2817309485781564  0.8693944747504794  1.0000
  N   N4        1.0  0.5289932257956237  0.7182690510726663  0.13060552520555177  1.0000
  N   N5        1.0  0.47179736384472776  0.6804371070386361  0.7038802691281882  1.0000
  N   N6        1.0  0.5282026360257889  0.31956289261260756  0.29611973083139864  1.0000
  N   N7        1.0  0.11659304403605146  0.6079117386531842  0.544787005533447  1.0000
  N   N8        1.0  0.8834069557313814  0.39208826164809474  0.4552129944242328  1.0000
  N   N9        1.0  0.1398446798771684  0.9955144638442337  0.3667539556947635  1.0000
  N   N10       1.0  0.8601553199933483  0.004485535807010254  0.6332460442648233  1.0000
  N   N11       1.0  0.774175156668745  0.9330773978313561  0.20524914661362226  1.0000
  N   N12       1.0  0.22582484309868778  0.06692260246992267  0.7947508533440575  1.0000
  O   O1        1.0  0.6810405731584687  0.4444004536590913  0.09766678533734337  1.0000
  O   O2        1.0  0.3189594266089641  0.5555995466421875  0.9023332146203364  1.0000
  O   O3        1.0  0.06607002719186465  0.2975061506869381  0.9265598718081607  1.0000
  O   O4        1.0  0.933929972678652  0.7024938489643057  0.07344012815142623  1.0000
  O   O5        1.0  0.007618085922482445  0.19675110747691615  0.057444240447765756  1.0000
  O   O6        1.0  0.9923819139480343  0.8032488921743276  0.9425557595118211  1.0000
  O   O7        1.0  0.4730848555537536  0.23962771598739677  0.9450371695360439  1.0000
  O   O8        1.0  0.5269151442136792  0.760372284313882  0.05496283042163592  1.0000
  O   O9        1.0  0.3290308427367783  0.7886802954642015  0.7718658613165558  1.0000
  O   O10       1.0  0.6709691567927984  0.2113197047336214  0.22813413925073492  1.0000
  O   O11       1.0  0.7105475795855908  0.6442606807881441  0.593968594933064  1.0000
  O   O12       1.0  0.28945242028492574  0.3557393188630997  0.4060314050265229  1.0000
  O   O13       1.0  0.6590889158260135  0.5450614071564358  0.7256138187038822  1.0000
  O   O14       1.0  0.34091108404450315  0.45493859249480795  0.27438618125570463  1.0000
  O   O15       1.0  0.11466949235433525  0.5790584843759281  0.6238018303814409  1.0000
  O   O16       1.0  0.8853305074130974  0.4209415159253509  0.3761981695762389  1.0000
  O   O17       1.0  0.0010635707319119488  0.10757802872453363  0.43138527570687407  1.0000
  O   O18       1.0  0.9989364290355209  0.8924219715767452  0.5686147242508057  1.0000
  O   O19       1.0  0.3257816125072278  0.860439797677363  0.391511105466094  1.0000
  O   O20       1.0  0.6742183870223487  0.13956020252045973  0.6084888951011967  1.0000
  O   O21       1.0  0.37498283347962386  0.9556980512921227  0.25717194003228755  1.0000
  O   O22       1.0  0.6250171674263476  0.04430194900873509  0.7428280599218366  1.0000
  O   O23       1.0  0.7888505415972842  0.8975360446294338  0.2810452967738558  1.0000
  O   O24       1.0  0.21114945817014874  0.10246395567184505  0.7189547031838239  1.0000
  S   S1        1.0  0.004930947580175384  0.28587249422601857  0.013828152978721767  1.0000
  S   S2        1.0  0.9950690521872573  0.7141275060752603  0.9861718469789579  1.0000
  S   S3        1.0  0.6534318462528037  0.6339845906156871  0.6814655593510381  1.0000
  S   S4        1.0  0.346568153617713  0.3660154090355566  0.31853444060854863  1.0000
  S   S5        1.0  0.3204076813536668  0.948107069263064  0.34473360649270984  1.0000
  S   S6        1.0  0.6795923195523045  0.051892931037793695  0.6552663934614144  1.0000
  Br  Br1       1.0  0.6584113421593496  0.290130392987035  0.992721613904167  1.0000
  Br  Br2       1.0  0.34158865737022703  0.7098696072107877  0.00727838666312374  1.0000
  Br  Br3       1.0  0.303541825284222  0.6365031184477646  0.666322138979541  1.0000
  Br  Br4       1.0  0.6964581744832109  0.3634968818535142  0.3336778609781388  1.0000
  Br  Br5       1.0  0.9734956682426557  0.9528792921534588  0.32548017975843574  1.0000
  Br  Br6       1.0  0.026504331627860984  0.04712070749778497  0.6745198202011511  1.0000
