data_image0
_chemical_formula_structural       H68C84N12O28S8Br8
_chemical_formula_sum              "H68 C84 N12 O28 S8 Br8"
_cell_length_a       14.918532787844132
_cell_length_b       7.4272123534668255
_cell_length_c       23.25493350356461
_cell_angle_alpha    90.0
_cell_angle_beta     105.01660118227038
_cell_angle_gamma    90.0

_space_group_name_H-M_alt    "P 1"
_space_group_IT_number       1

loop_
  _space_group_symop_operation_xyz
  'x, y, z'

loop_
  _atom_site_type_symbol
  _atom_site_label
  _atom_site_symmetry_multiplicity
  _atom_site_fract_x
  _atom_site_fract_y
  _atom_site_fract_z
  _atom_site_occupancy
  H   H1        1.0  0.22005875101847636  0.8254779624199399  0.7284848756546342  1.0000
  H   H2        1.0  0.2799412491728737  0.3254779619801264  0.7715151241332505  1.0000
  H   H3        1.0  0.7799412492447517  0.17452203845968706  0.2715151241412537  1.0000
  H   H4        1.0  0.720058750419664  0.6745220375531004  0.22848487566168524  1.0000
  H   H5        1.0  0.22998429441500035  0.7515338695539739  0.8339221539715683  1.0000
  H   H6        1.0  0.27001570577634965  0.25153387046056064  0.6660778458163161  1.0000
  H   H7        1.0  0.7700157058482275  0.24846612997925277  0.1660778458243194  1.0000
  H   H8        1.0  0.7299842944868783  0.7484661304190662  0.3339221539795717  1.0000
  H   H9        1.0  0.09793942157647416  0.8164277876301178  0.8776418132773265  1.0000
  H   H10       1.0  0.40206057861487593  0.31642778719030434  0.6223581865105583  1.0000
  H   H11       1.0  0.9020605786867538  0.18357221324950906  0.1223581865185615  1.0000
  H   H12       1.0  0.5979394216483521  0.6835722123429223  0.37764181328532964  1.0000
  H   H13       1.0  0.9527833145370961  0.9604131874148469  0.8158209478502997  1.0000
  H   H14       1.0  0.5472166857007832  0.46041318697503353  0.6841790522882752  1.0000
  H   H15       1.0  0.04721668590451436  0.039586812118379715  0.18417905239080737  1.0000
  H   H16       1.0  0.4527833147408272  0.5395868125581932  0.31582094795283183  1.0000
  H   H17       1.0  0.26735760041206164  0.902039645718866  0.25755087141689426  1.0000
  H   H18       1.0  0.23264239938420725  0.4020396466254528  0.2424491284805736  1.0000
  H   H19       1.0  0.732642399180476  0.09796035381436059  0.7424491283780413  1.0000
  H   H20       1.0  0.7673576008790207  0.597960354254174  0.7575508713153143  1.0000
  H   H21       1.0  0.24547962660799136  0.8087202121259276  0.15232352521991266  1.0000
  H   H22       1.0  0.25452037336666  0.3087202116861141  0.34767647512277433  1.0000
  H   H23       1.0  0.7545203731629289  0.19127978875369928  0.8476764750202422  1.0000
  H   H24       1.0  0.7454796270749505  0.6912797878471125  0.6523235251183327  1.0000
  H   H25       1.0  0.3709420412912066  0.8498904500897405  0.10106080100169396  1.0000
  H   H26       1.0  0.12905795850506221  0.349890449649927  0.3989391988957739  1.0000
  H   H27       1.0  0.629057958301331  0.15010954944348623  0.8989391987932418  1.0000
  H   H28       1.0  0.8709420412658581  0.6501095498832996  0.601060801344381  1.0000
  H   H29       1.0  0.5224258388219586  0.9883360755901388  0.15496248502958018  1.0000
  H   H30       1.0  0.9775741616915298  0.4883360751503253  0.34503751521953013  1.0000
  H   H31       1.0  0.47757416161965194  0.011663925289488083  0.8450375152115269  1.0000
  H   H32       1.0  0.022425838750080647  0.5116639243829013  0.654962485021577  1.0000
  H   H33       1.0  0.818295071837292  0.8526256095322354  0.4579937974017614  1.0000
  H   H34       1.0  0.6817049278271237  0.35262560909242197  0.04200620240117752  1.0000
  H   H35       1.0  0.18170492793362833  0.14737439134739144  0.5420062028383935  1.0000
  H   H36       1.0  0.31829507176541394  0.6473743904408047  0.9579937973937581  1.0000
  H   H37       1.0  0.6962700319299865  0.9630666674908275  0.5063347324463086  1.0000
  H   H38       1.0  0.8037299683078929  0.46306666839741417  0.9936652676922663  1.0000
  H   H39       1.0  0.3037299678409338  0.03693333204239927  0.49366526779384634  1.0000
  H   H40       1.0  0.19627003213371758  0.5369333324822126  0.006334732548840682  1.0000
  H   H41       1.0  0.6057124110442955  0.7398146960797737  0.5487174494901734  1.0000
  H   H42       1.0  0.8942875891935838  0.23981469563996033  0.9512825506484015  1.0000
  H   H43       1.0  0.3942875893973149  0.2601853034534529  0.4512825507509337  1.0000
  H   H44       1.0  0.10571241039895397  0.7601853038932663  0.04871744914653417  1.0000
  H   H45       1.0  0.5831928949543044  0.28090724362097225  0.5116823751514968  1.0000
  H   H46       1.0  0.916807105283575  0.7809072427143855  0.9883176249870781  1.0000
  H   H47       1.0  0.41680710481661587  0.7190927572586546  0.488317625088658  1.0000
  H   H48       1.0  0.0831928951580355  0.21909275681884116  0.011682375254029051  1.0000
  H   H49       1.0  0.574986110135161  0.4325813706538653  0.5696016664404904  1.0000
  H   H50       1.0  0.9250138901027183  0.9325813710936787  0.9303983336980844  1.0000
  H   H51       1.0  0.4250138894573768  0.5674186288793613  0.4303983333544454  1.0000
  H   H52       1.0  0.07498611033889209  0.0674186284395479  0.06960166654302251  1.0000
  H   H53       1.0  0.671572113759395  0.284886268131589  0.5786800342141624  1.0000
  H   H54       1.0  0.8284278864784843  0.7848862685714024  0.9213199659244126  1.0000
  H   H55       1.0  0.328427886503833  0.7151137314016376  0.42131996558172546  1.0000
  H   H56       1.0  0.17157211396312613  0.21511373230822442  0.0786800343166946  1.0000
  H   H57       1.0  0.9087280817597367  0.40546100430188153  0.4747394870272646  1.0000
  H   H58       1.0  0.5912719180830615  0.9054610033952948  0.02526051322089351  1.0000
  H   H59       1.0  0.09127191801118355  0.5945389965777453  0.5252605132128902  1.0000
  H   H60       1.0  0.40872808235854896  0.09453899613793187  0.9747394870202135  1.0000
  H   H61       1.0  0.9004326176755456  0.6024108719486857  0.4287856623093842  1.0000
  H   H62       1.0  0.5995673826595602  0.10241087150887229  0.0712143374945069  1.0000
  H   H63       1.0  0.09956738258768236  0.3975891275845409  0.5712143374865037  1.0000
  H   H64       1.0  0.40043261760366766  0.8975891280243544  0.9287856623013809  1.0000
  H   H65       1.0  0.8273613354722391  0.41144559688987353  0.40539045903206333  1.0000
  H   H66       1.0  0.6726386641921763  0.9114455973296869  0.09460954077087558  1.0000
  H   H67       1.0  0.17263866412029846  0.5885544026433531  0.5946095407628723  1.0000
  H   H68       1.0  0.3273613354003614  0.08855440220353972  0.9053904590240601  1.0000
  C   C1        1.0  0.9244985072913481  0.052318194432480716  0.6941149352335656  1.0000
  C   C2        1.0  0.5755014929465313  0.552318194872294  0.8058850649050093  1.0000
  C   C3        1.0  0.0755014924795722  0.947681805100746  0.30588506500658924  1.0000
  C   C4        1.0  0.42449850731669664  0.4476818060073327  0.19411493489087858  1.0000
  C   C5        1.0  0.004859149311928282  0.9695101455714914  0.7377672896368364  1.0000
  C   C6        1.0  0.495140850387114  0.4695101464780781  0.7622327105953152  1.0000
  C   C7        1.0  0.9951408504589919  0.030489853961735324  0.26223271060331854  1.0000
  C   C8        1.0  0.5048591493838062  0.5304898544015487  0.2377672896448396  1.0000
  C   C9        1.0  0.07985489615629242  0.9303493129255477  0.7140426130515264  1.0000
  C   C10       1.0  0.4201451040350578  0.4303493138321344  0.7859573867363585  1.0000
  C   C11       1.0  0.9201451041069356  0.06965068660767904  0.28595738674436166  1.0000
  C   C12       1.0  0.5798548962281703  0.5696506870474924  0.21404261305952946  1.0000
  C   C13       1.0  0.1615440498728829  0.8529386394941315  0.7470566989413209  1.0000
  C   C14       1.0  0.33845595031846715  0.3529386390543181  0.7529433008465638  1.0000
  C   C15       1.0  0.838455950390345  0.14706136138549533  0.25294330085456695  1.0000
  C   C16       1.0  0.6615440499447608  0.6470613604789086  0.24705669894932417  1.0000
  C   C17       1.0  0.16683185375629012  0.813604569577087  0.8068053566847349  1.0000
  C   C18       1.0  0.3331681459427521  0.3136045704836739  0.6931946435474167  1.0000
  C   C19       1.0  0.8331681460146301  0.18639542995613956  0.19319464355542  1.0000
  C   C20       1.0  0.666831853828168  0.686395430395953  0.3068053566927381  1.0000
  C   C21       1.0  0.09260851492505291  0.851139572850539  0.831352325143173  1.0000
  C   C22       1.0  0.4073914852662972  0.3511395737571258  0.6686476746447116  1.0000
  C   C23       1.0  0.9073914853381752  0.14886042668268762  0.16864767465271485  1.0000
  C   C24       1.0  0.5926085143262406  0.648860427122501  0.3313523251502241  1.0000
  C   C25       1.0  0.010808502031336634  0.9296528255014893  0.7971097885607212  1.0000
  C   C26       1.0  0.489191498338396  0.42965282506167596  0.7028902116723826  1.0000
  C   C27       1.0  0.9891914984102739  0.07034717403173732  0.20289021168038587  1.0000
  C   C28       1.0  0.5108085019248321  0.5703471744715507  0.29710978812350525  1.0000
  C   C29       1.0  0.566184740899834  0.09441713345824458  0.2756092118339579  1.0000
  C   C30       1.0  0.9338152589429644  0.5944171325516578  0.2243907884142002  1.0000
  C   C31       1.0  0.4338152588710864  0.9055828674213823  0.724390788406197  1.0000
  C   C32       1.0  0.06618474082795599  0.40558286698156887  0.7756092118259548  1.0000
  C   C33       1.0  0.4796339846196921  0.019529196567578372  0.236020704438133  1.0000
  C   C34       1.0  0.020366015176576716  0.5195291970073918  0.26397929545933485  1.0000
  C   C35       1.0  0.5203660158219183  0.9804708029656483  0.7639792958029741  1.0000
  C   C36       1.0  0.979633984415961  0.48047080387223506  0.7360207043356009  1.0000
  C   C37       1.0  0.4082047484224912  0.9940916980182556  0.26417439705220797  1.0000
  C   C38       1.0  0.09179525155216013  0.49409169892484234  0.23582560329047908  1.0000
  C   C39       1.0  0.5917952513484289  0.005908301514971085  0.7358256031879469  1.0000
  C   C40       1.0  0.9082047482187602  0.5059083019547844  0.7641743969496759  1.0000
  C   C41       1.0  0.32286189794712405  0.9207283088934433  0.23545285964510498  1.0000
  C   C42       1.0  0.17713810202752736  0.4207283084536298  0.26454714069758206  1.0000
  C   C43       1.0  0.6771381018237963  0.07927169063978344  0.7645471405950499  1.0000
  C   C44       1.0  0.8228618984140831  0.5792716910795969  0.735452859543525  1.0000
  C   C45       1.0  0.3109886328406678  0.8699281187219741  0.17586515900253188  1.0000
  C   C46       1.0  0.1890113669556011  0.36992811828216066  0.32413484089493594  1.0000
  C   C47       1.0  0.68901136675187  0.13007188081125262  0.8241348407924038  1.0000
  C   C48       1.0  0.8109886326369365  0.6300718812510661  0.6758651588999997  1.0000
  C   C49       1.0  0.3815587731488546  0.8939368869534042  0.14703735013900432  1.0000
  C   C50       1.0  0.11844122731810447  0.393936887859991  0.3529626497594157  1.0000
  C   C51       1.0  0.6184412271143734  0.10606311257982247  0.8529626496568836  1.0000
  C   C52       1.0  0.8815587729451235  0.6060631130196359  0.6470373500364722  1.0000
  C   C53       1.0  0.46665913050398034  0.9701188302010468  0.1767588654192001  1.0000
  C   C54       1.0  0.03334086929228855  0.47011882976123337  0.32324113447826774  1.0000
  C   C55       1.0  0.5333408697592477  0.02988116933217982  0.8232411343766878  1.0000
  C   C56       1.0  0.9666591303002492  0.5298811697719933  0.676758865316668  1.0000
  C   C57       1.0  0.7917771509040828  0.5757961717633959  0.4715871184169403  1.0000
  C   C58       1.0  0.7082228496094055  0.07579617132358253  0.02841288183217004  1.0000
  C   C59       1.0  0.20822284953752757  0.4242038291162309  0.5284128818241668  1.0000
  C   C60       1.0  0.29177715083220496  0.9242038282096441  0.9715871184089369  1.0000
  C   C61       1.0  0.7764259085240939  0.7593374258873197  0.47615318118605376  1.0000
  C   C62       1.0  0.7235740911403217  0.25933742544750626  0.02384681861688519  1.0000
  C   C63       1.0  0.22357409106844375  0.240662573645907  0.5238468186088819  1.0000
  C   C64       1.0  0.27642590845221604  0.7406625740857204  0.9761531811780505  1.0000
  C   C65       1.0  0.7085604240928741  0.8197467879261701  0.5029581607721569  1.0000
  C   C66       1.0  0.7914395761450053  0.31974678748635665  0.997041839366418  1.0000
  C   C67       1.0  0.29143957634873646  0.18025321160705654  0.49704183946895014  1.0000
  C   C68       1.0  0.2085604242966052  0.68025321204687  0.0029581608746890643  1.0000
  C   C69       1.0  0.6569758909004307  0.6959083938925494  0.5259133851930876  1.0000
  C   C70       1.0  0.8430241086667585  0.19590839479913616  0.9740866149445352  1.0000
  C   C71       1.0  0.3430241086921069  0.3040916056406772  0.47408661460184803  1.0000
  C   C72       1.0  0.15697589110416194  0.8040916060804907  0.02591338529561977  1.0000
  C   C73       1.0  0.6723638830858228  0.5121817660463627  0.5220795522475401  1.0000
  C   C74       1.0  0.8276361164813663  0.01218176695294944  0.9779204478900826  1.0000
  C   C75       1.0  0.3276361166850974  0.487818233486864  0.47792044799261485  1.0000
  C   C76       1.0  0.17236388311117143  0.9878182339266773  0.02207955190485301  1.0000
  C   C77       1.0  0.6226464452892437  0.3704202612055138  0.5468068121116644  1.0000
  C   C78       1.0  0.8773535549486356  0.8704202616453272  0.9531931880269104  1.0000
  C   C79       1.0  0.37735355515236674  0.6295797383277129  0.45319318812944265  1.0000
  C   C80       1.0  0.12264644531459237  0.12957973923429963  0.04680681176897731  1.0000
  C   C81       1.0  0.8613978067019198  0.49563865078958025  0.44366484978737486  1.0000
  C   C82       1.0  0.6386021938115686  0.9956386512293937  0.05633515046173544  1.0000
  C   C83       1.0  0.13860219373969068  0.5043613487436464  0.5563351504537322  1.0000
  C   C84       1.0  0.36139780663004184  0.0043613483038329945  0.9436648497793716  1.0000
  N   N1        1.0  0.9486171574583881  0.07549583118331996  0.6407034914455704  1.0000
  N   N2        1.0  0.5513828427794911  0.5754958302767332  0.8592965086930046  1.0000
  N   N3        1.0  0.051382842804839686  0.9245041696963069  0.3592965083503175  1.0000
  N   N4        1.0  0.44861715766211946  0.4245041692564934  0.14070349154810252  1.0000
  N   N5        1.0  0.5526449617389698  0.11575539772990284  0.33197064225454204  1.0000
  N   N6        1.0  0.9473550379254458  0.6157553968233161  0.1680293575483969  1.0000
  N   N7        1.0  0.44735503785356784  0.8842446031497241  0.6680293575403937  1.0000
  N   N8        1.0  0.052644961667091955  0.3842446027099106  0.8319706422465387  1.0000
  N   N9        1.0  0.7385068631551948  0.4588387429651566  0.4943195998275339  1.0000
  N   N10       1.0  0.7614931366876035  0.95883874340497  0.005680400420624261  1.0000
  N   N11       1.0  0.26149313728641577  0.5411612565680701  0.5056804004135732  1.0000
  N   N12       1.0  0.23850686308331687  0.04116125612825667  0.9943195998195308  1.0000
  O   O1        1.0  0.8493535919011974  0.09574840817201855  0.7021883244562342  1.0000
  O   O2        1.0  0.6506464076659916  0.595748408611832  0.7978116756813883  1.0000
  O   O3        1.0  0.15064640786972278  0.9042515913612081  0.2978116757839206  1.0000
  O   O4        1.0  0.3493535919265461  0.40425159092139473  0.20218832411354723  1.0000
  O   O5        1.0  0.11152799306843326  0.1367255117629694  0.6270712237778592  1.0000
  O   O6        1.0  0.3884720064522265  0.6367255108563826  0.8729287760090733  1.0000
  O   O7        1.0  0.8884720065241045  0.8632744891166574  0.3729287760170765  1.0000
  O   O8        1.0  0.6115279931403113  0.36327448867684403  0.12707122378586239  1.0000
  O   O9        1.0  0.04020329047942966  0.8387179675955154  0.5986744563252951  1.0000
  O   O10       1.0  0.4597967097119204  0.338717967155702  0.9013255434625895  1.0000
  O   O11       1.0  0.9597967097837983  0.16128203193771126  0.4013255434705927  1.0000
  O   O12       1.0  0.5402032905513076  0.6612820323775247  0.09867445633329841  1.0000
  O   O13       1.0  0.6381650999685436  0.1312719461353361  0.26204404124041847  1.0000
  O   O14       1.0  0.861834899695872  0.6312719465751495  0.23795595856252044  1.0000
  O   O15       1.0  0.3618349002946843  0.8687280533978905  0.7379559585554692  1.0000
  O   O16       1.0  0.1381650998966657  0.36872805295807715  0.7620440412324153  1.0000
  O   O17       1.0  0.4008958254475911  0.22571407147359787  0.3515105169206382  1.0000
  O   O18       1.0  0.09910417501936798  0.7257140719134113  0.1484894829777818  1.0000
  O   O19       1.0  0.5991041748156368  0.7742859280596287  0.6484894828752497  1.0000
  O   O20       1.0  0.9008958254222426  0.2742859289662155  0.8515105172633252  1.0000
  O   O21       1.0  0.4523453056026874  0.9153517560093236  0.38078398605556646  1.0000
  O   O22       1.0  0.04765469419358146  0.41535175556951026  0.11921601384190139  1.0000
  O   O23       1.0  0.5476546946605406  0.08464824352390293  0.6192160137403214  1.0000
  O   O24       1.0  0.9523453055773387  0.5846482439637164  0.8807839863982534  1.0000
  O   O25       1.0  0.7517348482568466  0.28132139496788566  0.4883270015171425  1.0000
  O   O26       1.0  0.7482651515859514  0.7813213940612989  0.011672998731015592  1.0000
  O   O27       1.0  0.2482651521847638  0.7186786059117412  0.5116729987239645  1.0000
  O   O28       1.0  0.2517348481849687  0.21867860547192777  0.9883270015091392  1.0000
  S   S1        1.0  0.05328111546272063  0.9921822184820497  0.6381387319527458  1.0000
  S   S2        1.0  0.4467188849070119  0.49218221804223633  0.8618612682803579  1.0000
  S   S3        1.0  0.9467188849788899  0.00781778105117691  0.36186126828836124  1.0000
  S   S4        1.0  0.5532811155345985  0.5078177814909903  0.13813873196074908  1.0000
  S   S5        1.0  0.4460131284138208  0.06274294551205085  0.33939990002519604  1.0000
  S   S6        1.0  0.05398687156083059  0.5627429459518642  0.16060010031749103  1.0000
  S   S7        1.0  0.5539868713570995  0.9372570540211758  0.6606001002149589  1.0000
  S   S8        1.0  0.9460131282100895  0.4372570535813624  0.8393998999226638  1.0000
  Br  Br1       1.0  0.8642805860637367  0.16621686593136864  0.5708272583570462  1.0000
  Br  Br2       1.0  0.6357194141741427  0.6662168663711819  0.9291727417815288  1.0000
  Br  Br3       1.0  0.13571941419949132  0.8337831336018581  0.4291727414388417  1.0000
  Br  Br4       1.0  0.3642805862674678  0.33378313450844477  0.07082725845957834  1.0000
  Br  Br5       1.0  0.6457548687045483  0.18909380036029869  0.4006682261649384  1.0000
  Br  Br6       1.0  0.85424513180894  0.6890938008001121  0.09933177408417188  1.0000
  Br  Br7       1.0  0.3542451317370621  0.8109061991729279  0.5993317740761687  1.0000
  Br  Br8       1.0  0.14575486863267043  0.3109062000795147  0.9006682261569351  1.0000
