data_image0
_chemical_formula_structural       H52C72N8O16S4Br4
_chemical_formula_sum              "H52 C72 N8 O16 S4 Br4"
_cell_length_a       7.084942634503449
_cell_length_b       8.424592067602045
_cell_length_c       28.885652465371347
_cell_angle_alpha    90.0
_cell_angle_beta     92.70546056867525
_cell_angle_gamma    90.0

_space_group_name_H-M_alt    "P 1"
_space_group_IT_number       1

loop_
  _space_group_symop_operation_xyz
  'x, y, z'

loop_
  _atom_site_type_symbol
  _atom_site_label
  _atom_site_symmetry_multiplicity
  _atom_site_fract_x
  _atom_site_fract_y
  _atom_site_fract_z
  _atom_site_occupancy
  H   H1        1.0  0.21598673753934092  0.8529354433235247  0.44067826731825444  1.0000
  H   H2        1.0  0.7840132617637963  0.3529354437747065  0.05932173247471961  1.0000
  H   H3        1.0  0.7840132620087725  0.1470645569611128  0.5593217324932134  1.0000
  H   H4        1.0  0.2159867377843173  0.647064556509931  0.9406782673367482  1.0000
  H   H5        1.0  0.2138828437885674  0.947919736162735  0.5217291370800663  1.0000
  H   H6        1.0  0.786117157483432  0.4479197354269156  0.978270863096276  1.0000
  H   H7        1.0  0.7861171572384557  0.05208026412190259  0.47827086307778227  1.0000
  H   H8        1.0  0.213882843543591  0.5520802648577219  0.021729137061572566  1.0000
  H   H9        1.0  0.2332583023998352  0.7551921385566763  0.5876532806804219  1.0000
  H   H10       1.0  0.7667416974607585  0.2551921390078581  0.9123467194961186  1.0000
  H   H11       1.0  0.7667416972157822  0.2448078605409601  0.41234671947762486  1.0000
  H   H12       1.0  0.23325830215485885  0.7448078612767793  0.08765328066192811  1.0000
  H   H13       1.0  0.2558990872181531  0.4640736736719915  0.5721105540485778  1.0000
  H   H14       1.0  0.7441009125749368  0.9640736732208097  0.9278894457813837  1.0000
  H   H15       1.0  0.7441009123299603  0.5359263266126459  0.42788944576288995  1.0000
  H   H16       1.0  0.25589908697317676  0.03592632706382776  0.07211055403008414  1.0000
  H   H17       1.0  0.5452649224980946  0.8888415605067275  0.4243046140583964  1.0000
  H   H18       1.0  0.45473507687254644  0.38884156095790934  0.07569538608115657  1.0000
  H   H19       1.0  0.45473507711752276  0.11115843977790997  0.5756953860996503  1.0000
  H   H20       1.0  0.5452649227430709  0.6111584393267281  0.9243046140768901  1.0000
  H   H21       1.0  0.8908863626241132  0.864557508726137  0.41253368233411486  1.0000
  H   H22       1.0  0.10911363815793339  0.36455750917731883  0.08746631780523996  1.0000
  H   H23       1.0  0.10911363840290975  0.13544249155850047  0.5874663178237337  1.0000
  H   H24       1.0  0.890886361457684  0.6354424911073187  0.9125336823528067  1.0000
  H   H25       1.0  0.00022311306949398464  0.8398517748069345  0.3309331017604314  1.0000
  H   H26       1.0  0.9997768862336431  0.3398517752581164  0.16906689803254266  1.0000
  H   H27       1.0  0.9997768864786195  0.16014822547770294  0.6690668980510364  1.0000
  H   H28       1.0  0.00022311331447038538  0.6601482250265212  0.8309331017789252  1.0000
  H   H29       1.0  0.754027029423157  0.8190998347014521  0.26594261823512055  1.0000
  H   H30       1.0  0.2459729713588896  0.31909983396563285  0.23405738190423428  1.0000
  H   H31       1.0  0.24597297160386591  0.18090016558318536  0.734057381922728  1.0000
  H   H32       1.0  0.7540270296681334  0.6809001651320036  0.7659426182536143  1.0000
  H   H33       1.0  0.5032480945862282  0.9977310429456216  0.22717073937349058  1.0000
  H   H34       1.0  0.4967519061958184  0.49773104339680346  0.2728292607658642  1.0000
  H   H35       1.0  0.49675190644079475  0.0022689573390158053  0.772829260784358  1.0000
  H   H36       1.0  0.5032480948312046  0.502268956887834  0.7271707393919843  1.0000
  H   H37       1.0  0.2690933900313604  0.9550845554816577  0.16187740370962753  1.0000
  H   H38       1.0  0.7309066107506861  0.45508455474583853  0.3381225964297273  1.0000
  H   H39       1.0  0.7309066109956627  0.04491544480297967  0.8381225964482211  1.0000
  H   H40       1.0  0.2690933888649311  0.5449154443517978  0.6618774037283194  1.0000
  H   H41       1.0  0.010096513930803831  0.7581931906903728  0.16924686998071636  1.0000
  H   H42       1.0  0.989903486783739  0.25819318995455354  0.33075312981205957  1.0000
  H   H43       1.0  0.9899034856173097  0.2418068095942646  0.8307531298307514  1.0000
  H   H44       1.0  0.010096514175780209  0.7418068103300839  0.6692468699992101  1.0000
  H   H45       1.0  0.9870518347869988  0.6042925959083342  0.24268535681869932  1.0000
  H   H46       1.0  0.012948165995047976  0.10429259517251485  0.25731464332065546  1.0000
  H   H47       1.0  0.01294816624002433  0.3957074043763033  0.7573146433391491  1.0000
  H   H48       1.0  0.9870518336205694  0.8957074039251215  0.7426853568373913  1.0000
  H   H49       1.0  0.2160032294058427  0.651750625542498  0.30857414046769904  1.0000
  H   H50       1.0  0.7839967713762039  0.15175062480667875  0.19142585967165576  1.0000
  H   H51       1.0  0.7839967716211803  0.34824937474213946  0.6914258596901495  1.0000
  H   H52       1.0  0.21600322823941343  0.8482493742909576  0.808574140486391  1.0000
  C   C1        1.0  0.25909980707645514  0.32925301875056057  0.48210804901659776  1.0000
  C   C2        1.0  0.7409001922941859  0.8292530182993787  0.01789195112295522  1.0000
  C   C3        1.0  0.7409001925391622  0.6707469815340769  0.5178919511414489  1.0000
  C   C4        1.0  0.25909980732143156  0.17074698198525873  0.9821080490350915  1.0000
  C   C5        1.0  0.24977272956468927  0.49688812305798863  0.498112790955359  1.0000
  C   C6        1.0  0.7502272712173574  0.996888123793808  0.0018872091839958751  1.0000
  C   C7        1.0  0.7502272714623337  0.5031118772266489  0.5018872092024895  1.0000
  C   C8        1.0  0.24977272839825998  0.0031118764908295597  0.9981127909740508  1.0000
  C   C9        1.0  0.23831338358156984  0.6069190233747858  0.46177651920924806  1.0000
  C   C10       1.0  0.7616866172004767  0.10691902263896641  0.03822348093010671  1.0000
  C   C11       1.0  0.7616866174454532  0.3930809769098517  0.5382234809486004  1.0000
  C   C12       1.0  0.23831338241514055  0.8930809764586699  0.9617765192279399  1.0000
  C   C13       1.0  0.22420378127456586  0.7688791051272512  0.46930511693495186  1.0000
  C   C14       1.0  0.7757962180285712  0.2688791055784331  0.03069488285802222  1.0000
  C   C15       1.0  0.7757962182735476  0.23112089515738624  0.530694882876516  1.0000
  C   C16       1.0  0.22420378151954223  0.7311208947062044  0.9693051169534456  1.0000
  C   C17       1.0  0.2231219780913518  0.820784692542176  0.5153618796538812  1.0000
  C   C18       1.0  0.776878021701738  0.3207846929933578  0.9846381201760802  1.0000
  C   C19       1.0  0.7768780215242655  0.17921530774246142  0.4846381205041654  1.0000
  C   C20       1.0  0.2231219778463754  0.6792153072912795  0.015361879635387564  1.0000
  C   C21       1.0  0.2348155327856217  0.7124118867524385  0.5520517263249501  1.0000
  C   C22       1.0  0.7651844670074681  0.2124118872036203  0.9479482735050113  1.0000
  C   C23       1.0  0.7651844667624919  0.28758811353219893  0.4479482734865177  1.0000
  C   C24       1.0  0.23481553401955482  0.7875881130810172  0.0520517266528371  1.0000
  C   C25       1.0  0.2478948218830056  0.5491639005040716  0.5437783477887135  1.0000
  C   C26       1.0  0.7521051779775881  0.049163900955253345  0.956221652387827  1.0000
  C   C27       1.0  0.7521051777326117  0.4508360985935648  0.4562216523693332  1.0000
  C   C28       1.0  0.24789482163802926  0.9508360993293841  0.043778347770219765  1.0000
  C   C29       1.0  0.6016689694738147  0.8761652838225797  0.3902148671762869  1.0000
  C   C30       1.0  0.39833102989682634  0.37616528427376156  0.1097851329632661  1.0000
  C   C31       1.0  0.3983310301418027  0.12383471646205774  0.6097851329817598  1.0000
  C   C32       1.0  0.601668969718791  0.6238347160108759  0.8902148671947806  1.0000
  C   C33       1.0  0.7918529817544091  0.8635269116443638  0.38266173964792655  1.0000
  C   C34       1.0  0.20814701896013368  0.36352691090854455  0.11733826014484937  1.0000
  C   C35       1.0  0.2081470177937044  0.13647308864027363  0.6173382601635412  1.0000
  C   C36       1.0  0.7918529819993855  0.6364730881890919  0.8826617396664203  1.0000
  C   C37       1.0  0.8506842375658243  0.8475553027023182  0.3375227739471366  1.0000
  C   C38       1.0  0.14931576321622222  0.3475553031535  0.16247722619221824  1.0000
  C   C39       1.0  0.14931576204979297  0.15244469758231932  0.6624772262109102  1.0000
  C   C40       1.0  0.8506842378108008  0.6524446971311375  0.8375227739656304  1.0000
  C   C41       1.0  0.7142664117399988  0.8380095491091841  0.3014558481027451  1.0000
  C   C42       1.0  0.2857335890420478  0.33800954956036605  0.19854415203660963  1.0000
  C   C43       1.0  0.28573358928702425  0.16199045117545327  0.6985441520551035  1.0000
  C   C44       1.0  0.7142664105735694  0.6619904507242714  0.801455848121437  1.0000
  C   C45       1.0  0.5219575611413511  0.8482657169220186  0.30946141649722086  1.0000
  C   C46       1.0  0.4780424395731917  0.3482657173732004  0.19053858329555506  1.0000
  C   C47       1.0  0.47804243840676236  0.15173428217561777  0.690538583314247  1.0000
  C   C48       1.0  0.5219575613863275  0.651734282911437  0.8094614165157147  1.0000
  C   C49       1.0  0.3744727488739179  0.8288294512030295  0.2722506133077661  1.0000
  C   C50       1.0  0.6255272504292192  0.32882945046721035  0.22774938648520796  1.0000
  C   C51       1.0  0.6255272506741955  0.17117054908160784  0.7277493865037016  1.0000
  C   C52       1.0  0.3744727491188943  0.671170548630426  0.7722506133262598  1.0000
  C   C53       1.0  0.38940259078333617  0.912139950318956  0.23053484309195943  1.0000
  C   C54       1.0  0.6105974099987105  0.41213995077013776  0.2694651570473954  1.0000
  C   C55       1.0  0.6105974102436869  0.08786004877868044  0.769465157065889  1.0000
  C   C56       1.0  0.38940259102831254  0.5878600495144997  0.7305348431104532  1.0000
  C   C57       1.0  0.25772373322888265  0.8877183963316467  0.19378742991277964  1.0000
  C   C58       1.0  0.742276267553164  0.38771839678282854  0.3062125702265752  1.0000
  C   C59       1.0  0.7422762677981404  0.11228160395299071  0.806212570245069  1.0000
  C   C60       1.0  0.25772373206245336  0.6122816035018089  0.6937874299314715  1.0000
  C   C61       1.0  0.11228335396233213  0.7776148325558848  0.19808005150574012  1.0000
  C   C62       1.0  0.8877166454083087  0.2776148318200656  0.3019199486338129  1.0000
  C   C63       1.0  0.8877166456532852  0.22238516772875264  0.8019199486523065  1.0000
  C   C64       1.0  0.11228335420730853  0.7223851672775708  0.6980800515242339  1.0000
  C   C65       1.0  0.09846783455292582  0.6924217366480031  0.2393550440254921  1.0000
  C   C66       1.0  0.9015321647502113  0.1924217359121839  0.260644955767482  1.0000
  C   C67       1.0  0.9015321649951877  0.30757826363663426  0.7606449557859757  1.0000
  C   C68       1.0  0.0984678347979022  0.8075782643724536  0.7393550440439859  1.0000
  C   C69       1.0  0.2273064733327453  0.7185433171630153  0.27653849986726725  1.0000
  C   C70       1.0  0.7726935274493013  0.21854331642719607  0.22346150027208753  1.0000
  C   C71       1.0  0.7726935276942777  0.2814566831216221  0.7234615002905813  1.0000
  C   C72       1.0  0.22730647216631605  0.7814566826704403  0.7765384998859591  1.0000
  N   N1        1.0  0.24932431149055903  0.32764648755102055  0.4341247670636611  1.0000
  N   N2        1.0  0.7506756892239838  0.8276464882868398  0.0658752327291148  1.0000
  N   N3        1.0  0.7506756880575545  0.6723535115466158  0.5658752327478066  1.0000
  N   N4        1.0  0.2493243117355354  0.17235351199779764  0.9341247670821549  1.0000
  N   N5        1.0  0.4713183585851264  0.8728085325670795  0.3541393560476344  1.0000
  N   N6        1.0  0.5286816407855146  0.3728085330182614  0.14586064409191857  1.0000
  N   N7        1.0  0.528681641030491  0.1271914677175579  0.6458606441104123  1.0000
  N   N8        1.0  0.47131835883010276  0.6271914672663761  0.8541393560661281  1.0000
  O   O1        1.0  0.2716805283986371  0.21001564180229892  0.5066685137689446  1.0000
  O   O2        1.0  0.7283194713944527  0.710015641351117  0.9933314860610168  1.0000
  O   O3        1.0  0.7283194711494765  0.7899843584823385  0.49333148604252325  1.0000
  O   O4        1.0  0.27168052815366067  0.28998435893352037  0.006668513750450891  1.0000
  O   O5        1.0  0.06419386877579811  0.5237934602162918  0.38126045482421506  1.0000
  O   O6        1.0  0.935806130527339  0.02379345948047258  0.11873954496875908  1.0000
  O   O7        1.0  0.9358061307723152  0.4762065400683456  0.6187395449872528  1.0000
  O   O8        1.0  0.06419386902077452  0.9762065396171639  0.8812604548427089  1.0000
  O   O9        1.0  0.4124922237836425  0.5332402962602658  0.38401817579209635  1.0000
  O   O10       1.0  0.5875077755194946  0.03324029671144762  0.11598182400087778  1.0000
  O   O11       1.0  0.5875077757644711  0.46675970283737056  0.6159818240193715  1.0000
  O   O12       1.0  0.41249222402861885  0.9667597035731899  0.8840181758105901  1.0000
  O   O13       1.0  0.2894225782260182  0.8947598506268795  0.36262490864060104  1.0000
  O   O14       1.0  0.7105774211446227  0.3947598498910602  0.137375091498952  1.0000
  O   O15       1.0  0.7105774213895991  0.10524014965775798  0.6373750915174458  1.0000
  O   O16       1.0  0.2894225784709946  0.6052401492065762  0.8626249086590948  1.0000
  S   S1        1.0  0.24067340329286757  0.5065400147279369  0.4079794643358785  1.0000
  S   S2        1.0  0.7593265974891791  0.006540015179118656  0.09202053580347624  1.0000
  S   S3        1.0  0.7593265962552458  0.4934599855567006  0.5920205354755892  1.0000
  S   S4        1.0  0.24067340353784394  0.9934599851055189  0.9079794643543722  1.0000
  Br  Br1       1.0  0.26280883322850035  0.13220187530302746  0.3983811212685246  1.0000
  Br  Br2       1.0  0.7371911674860424  0.6322018760388467  0.10161887852425137  1.0000
  Br  Br3       1.0  0.7371911677310189  0.867798123794609  0.6016188785427451  1.0000
  Br  Br4       1.0  0.2628088334734767  0.3677981242457907  0.8983811212870183  1.0000
