data_image0
_chemical_formula_structural       H32C32N4O8S2Cl6Br2
_chemical_formula_sum              "H32 C32 N4 O8 S2 Cl6 Br2"
_cell_length_a       7.038807777691842
_cell_length_b       8.43364361520027
_cell_length_c       17.451482883468447
_cell_angle_alpha    82.33140239059644
_cell_angle_beta     86.25311783710025
_cell_angle_gamma    85.72884874964359

_space_group_name_H-M_alt    "P 1"
_space_group_IT_number       1

loop_
  _space_group_symop_operation_xyz
  'x, y, z'

loop_
  _atom_site_type_symbol
  _atom_site_label
  _atom_site_symmetry_multiplicity
  _atom_site_fract_x
  _atom_site_fract_y
  _atom_site_fract_z
  _atom_site_occupancy
  H   H1        1.0  0.7532858273571071  0.32238003711092705  0.6042471356302918  1.0000
  H   H2        1.0  0.2467141727134583  0.677619963616749  0.3957528642563181  1.0000
  H   H3        1.0  0.8007732882062643  0.45525800846568604  0.46943330692702595  1.0000
  H   H4        1.0  0.1992267119681132  0.5447419910735407  0.5305666929574528  1.0000
  H   H5        1.0  0.8147674434107931  0.29558933504315826  0.35823665136774513  1.0000
  H   H6        1.0  0.18523255534283845  0.7044106644985074  0.6417633485157321  1.0000
  H   H7        1.0  0.7778946490181644  0.000948691267797749  0.3815664159009879  1.0000
  H   H8        1.0  0.22210535115621297  0.9990513082714294  0.6184335839834909  1.0000
  H   H9        1.0  0.4043735471920693  0.35282185922900244  0.6262093171145496  1.0000
  H   H10       1.0  0.5956264529823081  0.6471781403102245  0.3737906827699293  1.0000
  H   H11       1.0  0.05690505075422659  0.3093440568490951  0.6426129016298526  1.0000
  H   H12       1.0  0.9430949494201508  0.6906559426901319  0.3573870982546262  1.0000
  H   H13       1.0  0.9069968623596601  0.25028883117126627  0.7776724685401486  1.0000
  H   H14       1.0  0.09300313773264104  0.7497111682086565  0.22232753192342464  1.0000
  H   H15       1.0  0.11571984134178401  0.23308506511163624  0.8899292511132745  1.0000
  H   H16       1.0  0.8842801587287814  0.7669149356160399  0.1100707487733354  1.0000
  H   H17       1.0  0.6122229082951085  0.3607032563019132  0.8631532573130802  1.0000
  H   H18       1.0  0.3877770903764466  0.6392967430804486  0.13684674314949152  1.0000
  H   H19       1.0  0.32984912155650387  0.4227577511426928  0.954705355386581  1.0000
  H   H20       1.0  0.6701508786178737  0.577242248396534  0.04529464449789786  1.0000
  H   H21       1.0  0.5175927004837861  0.3042479843832205  0.002575494515298755  1.0000
  H   H22       1.0  0.48240729960851486  0.6957520149967025  0.9974245059482745  1.0000
  H   H23       1.0  0.311118439062727  0.2136112056771421  0.9828798513988297  1.0000
  H   H24       1.0  0.6888815611116504  0.7863887938620849  0.017120148485649144  1.0000
  H   H25       1.0  0.5109575422139077  0.011256225337488181  0.9089016044408462  1.0000
  H   H26       1.0  0.48904245643591177  0.9887437753926268  0.09109839544476213  1.0000
  H   H27       1.0  0.7237899313057033  0.09448667125112359  0.9298439020491036  1.0000
  H   H28       1.0  0.27621006878659776  0.9055133281287993  0.07015609841446965  1.0000
  H   H29       1.0  0.6763690025912665  0.07691534629593572  0.832241582036586  1.0000
  H   H30       1.0  0.323630997479299  0.9230846544317401  0.1677584178500239  1.0000
  H   H31       1.0  0.985772577556951  0.8738108794420051  0.8131639117235654  1.0000
  H   H32       1.0  0.014227422513614484  0.12618912128567103  0.18683608816304448  1.0000
  C   C1        1.0  0.7281979905771081  0.8233642842093993  0.5315967211925886  1.0000
  C   C2        1.0  0.27180200809444705  0.17663571517296228  0.46840327926998326  1.0000
  C   C3        1.0  0.748488191045169  0.9971207520593584  0.5057505816308178  1.0000
  C   C4        1.0  0.25151180894332037  0.002879248509013618  0.4942494188348865  1.0000
  C   C5        1.0  0.7426662159027829  0.08875946115642414  0.567109834836611  1.0000
  C   C6        1.0  0.2573337842715946  0.9112405383828027  0.4328901650478678  1.0000
  C   C7        1.0  0.7612089386387303  0.2528301534424886  0.555783265914409  1.0000
  C   C8        1.0  0.23879106153564716  0.7471698460967383  0.4442167339700699  1.0000
  C   C9        1.0  0.7871790097875303  0.3261136637110529  0.4793266008589071  1.0000
  C   C10       1.0  0.2128209902009588  0.673886336857319  0.5206733996067971  1.0000
  C   C11       1.0  0.7938159629067737  0.23630576494770378  0.41727186983828  1.0000
  C   C12       1.0  0.20618403584685782  0.763694234593962  0.5827281300451973  1.0000
  C   C13       1.0  0.7739930273308931  0.07077701951594709  0.4298330354961553  1.0000
  C   C14       1.0  0.2260069727396724  0.9292229812117289  0.5701669643904546  1.0000
  C   C15       1.0  0.33086462009829765  0.3287603776828152  0.682796007059048  1.0000
  C   C16       1.0  0.6691353799722679  0.6712396230448608  0.3172039928275619  1.0000
  C   C17       1.0  0.13915759339990194  0.30370133968309987  0.6936200483941928  1.0000
  C   C18       1.0  0.8608424066706636  0.696298661044576  0.306379951492417  1.0000
  C   C19       1.0  0.05858820796431799  0.26882047043072316  0.7686426886313228  1.0000
  C   C20       1.0  0.9414117907893135  0.7311795291109427  0.23135731125215467  1.0000
  C   C21       1.0  0.17482202078380568  0.25956441733048635  0.8307827549741861  1.0000
  C   C22       1.0  0.8251779792046835  0.7404355832378857  0.16921724549151812  1.0000
  C   C23       1.0  0.3684265833653084  0.28530425626061773  0.8192695519483464  1.0000
  C   C24       1.0  0.631573416705257  0.7146957444670584  0.18073044793826348  1.0000
  C   C25       1.0  0.5066227658675994  0.27146660356737556  0.8822206251186951  1.0000
  C   C26       1.0  0.4933772343067779  0.7285333959718514  0.11777937476578373  1.0000
  C   C27       1.0  0.4099390318875353  0.3053764546872866  0.9597792077364644  1.0000
  C   C28       1.0  0.5900609682868421  0.6946235448519403  0.04022079214801432  1.0000
  C   C29       1.0  0.6114796758384282  0.10345365229043706  0.8884039533456746  1.0000
  C   C30       1.0  0.38852032425387295  0.8965463470894857  0.11159604711789867  1.0000
  C   C31       1.0  0.05128829244659302  0.7768949449996846  0.8528460375703888  1.0000
  C   C32       1.0  0.9487117076239725  0.2231050557279915  0.1471539623162211  1.0000
  N   N1        1.0  0.7138308815989924  0.7983927075087163  0.6117385030909448  1.0000
  N   N2        1.0  0.2861691171546389  0.20160729203294966  0.3882614967925325  1.0000
  N   N3        1.0  0.4407918928908998  0.3198973378411619  0.7446008805008053  1.0000
  N   N4        1.0  0.5592081072834775  0.6801026616980651  0.2553991193836735  1.0000
  O   O1        1.0  0.7254226906940195  0.7172561792160581  0.48971387415702694  1.0000
  O   O2        1.0  0.274577309376546  0.2827438215116179  0.5102861257295829  1.0000
  O   O3        1.0  0.5269056207921213  0.9912949816844214  0.6952536290994404  1.0000
  O   O4        1.0  0.47309437938225596  0.008705017854805335  0.3047463707850384  1.0000
  O   O5        1.0  0.8769831017928172  0.9561743494319078  0.702086146012867  1.0000
  O   O6        1.0  0.1230168982994838  0.04382564994801486  0.2979138544507062  1.0000
  O   O7        1.0  0.627079357490591  0.3416028650455703  0.7321183164352578  1.0000
  O   O8        1.0  0.3729206425799745  0.6583971356821058  0.2678816834513521  1.0000
  S   S1        1.0  0.7113633129501405  0.9636894485530673  0.6562723337001579  1.0000
  S   S2        1.0  0.28863668703834866  0.036310552015304746  0.3437276667655462  1.0000
  Cl  Cl1       1.0  0.892732110653026  0.621634822734711  0.8698356390597133  1.0000
  Cl  Cl2       1.0  0.10726788943927501  0.37836517664521174  0.1301643614038599  1.0000
  Cl  Cl3       1.0  0.08729419206560529  0.8536488704566606  0.9408969076706132  1.0000
  Cl  Cl4       1.0  0.9127058080049602  0.14635113027101557  0.05910309221599656  1.0000
  Cl  Cl5       1.0  0.2720105894547268  0.7134595655570016  0.8089035755829739  1.0000
  Cl  Cl6       1.0  0.7279894106158389  0.2865404351706744  0.191096424303636  1.0000
  Br  Br1       1.0  0.6728973113922728  0.5897228394670307  0.6709826007528658  1.0000
  Br  Br2       1.0  0.3271026886782926  0.4102771612606453  0.32901739913374417  1.0000
