data_image0
_chemical_formula_structural       H26C28N4O8S2Br2
_chemical_formula_sum              "H26 C28 N4 O8 S2 Br2"
_cell_length_a       7.0125797462740325
_cell_length_b       8.540212831710017
_cell_length_c       12.614513490044267
_cell_angle_alpha    99.28831847508205
_cell_angle_beta     95.76550197947536
_cell_angle_gamma    94.23726967643853

_space_group_name_H-M_alt    "P 1"
_space_group_IT_number       1

loop_
  _space_group_symop_operation_xyz
  'x, y, z'

loop_
  _atom_site_type_symbol
  _atom_site_label
  _atom_site_symmetry_multiplicity
  _atom_site_fract_x
  _atom_site_fract_y
  _atom_site_fract_z
  _atom_site_occupancy
  H   H1        1.0  0.7912483136441649  0.20244955802904027  0.6480986233406544  1.0000
  H   H2        1.0  0.20875168613425674  0.7975504422947379  0.35190137677375255  1.0000
  H   H3        1.0  0.7810394459816465  0.056432294031003596  0.45991416725674156  1.0000
  H   H4        1.0  0.21896055379677504  0.9435677062927746  0.5400858328576655  1.0000
  H   H5        1.0  0.7537287571160372  0.2033495906160039  0.3041129332134582  1.0000
  H   H6        1.0  0.24627124266238434  0.7966504097077743  0.6958870669009488  1.0000
  H   H7        1.0  0.73421167887801  0.49782487561774647  0.3355620751861659  1.0000
  H   H8        1.0  0.26578832090041155  0.5021751247060317  0.6644379249282412  1.0000
  H   H9        1.0  0.3136515454457508  0.34349858846303577  0.04890908579518584  1.0000
  H   H10       1.0  0.6863484543326707  0.6565014118607422  0.9510909143192211  1.0000
  H   H11       1.0  0.04126176388732988  0.2983896349305572  0.8971620949450678  1.0000
  H   H12       1.0  0.958738237317464  0.7016103653996706  0.10283790516827603  1.0000
  H   H13       1.0  0.11747723376949035  0.20436021720902492  0.7078392044237488  1.0000
  H   H14       1.0  0.8825227660089312  0.7956397831147533  0.2921607956906583  1.0000
  H   H15       1.0  0.45557606698425673  0.15327197636616888  0.6786656412534704  1.0000
  H   H16       1.0  0.5444239326973063  0.8467280227842701  0.32133435886402106  1.0000
  H   H17       1.0  0.6494674562784518  0.3631075218722321  0.10418612515015965  1.0000
  H   H18       1.0  0.35053254349996976  0.6368924784515461  0.8958138749642472  1.0000
  H   H19       1.0  0.8136122334286296  0.35144955276681855  0.006286134964767327  1.0000
  H   H20       1.0  0.18638776767930573  0.6485504463900701  0.9937138651516609  1.0000
  H   H21       1.0  0.7843937962984908  0.04882208391113611  0.990673186732822  1.0000
  H   H22       1.0  0.2156062034799309  0.9511779164126422  0.009326813381584914  1.0000
  H   H23       1.0  0.6273167198887033  0.06760182979117443  0.09335565874158802  1.0000
  H   H24       1.0  0.3726832798897182  0.9323981705326037  0.9066443413728189  1.0000
  H   H25       1.0  0.8716596834901922  0.14881745859271428  0.12315426205627393  1.0000
  H   H26       1.0  0.12834031619137087  0.8511825405577246  0.8768457380612175  1.0000
  C   C1        1.0  0.7446202826404139  0.6880151499754739  0.5438071604103146  1.0000
  C   C2        1.0  0.2553797171380078  0.31198485034830414  0.4561928397040923  1.0000
  C   C3        1.0  0.7517205077978821  0.5135696489864087  0.5085817522111452  1.0000
  C   C4        1.0  0.24827949171708003  0.4864303499568097  0.4914182470977945  1.0000
  C   C5        1.0  0.7682462500977527  0.42875267706508374  0.594607757991782  1.0000
  C   C6        1.0  0.23175374968066886  0.5712473232586943  0.405392242122625  1.0000
  C   C7        1.0  0.7798722069849654  0.2654944816985762  0.5796833429956607  1.0000
  C   C8        1.0  0.2201277925299968  0.7345055172446422  0.4203166563132791  1.0000
  C   C9        1.0  0.7734427707880024  0.18513878197231853  0.47326675679451685  1.0000
  C   C10       1.0  0.22655722899041927  0.8148612183514595  0.5267332433198901  1.0000
  C   C11       1.0  0.7573279620385582  0.26801965686448215  0.38625148921153235  1.0000
  C   C12       1.0  0.24267203747640392  0.7319803420787362  0.6137485100974074  1.0000
  C   C13       1.0  0.7466385272434447  0.4331283619378825  0.40307071114427273  1.0000
  C   C14       1.0  0.25336147236837603  0.566871638178675  0.5969292881615826  1.0000
  C   C15       1.0  0.5239452711569873  0.26768759982365753  0.9463393075454224  1.0000
  C   C16       1.0  0.4760547286214342  0.7323124005001206  0.05366069256898458  1.0000
  C   C17       1.0  0.3371409588371245  0.29924512990019947  0.9657421024860606  1.0000
  C   C18       1.0  0.6628590409412971  0.7007548704235788  0.034257897628346475  1.0000
  C   C19       1.0  0.18739494558352224  0.2753106129747841  0.8820863782617127  1.0000
  C   C20       1.0  0.8126050541948993  0.7246893873489941  0.11791362185269422  1.0000
  C   C21       1.0  0.22724389602664616  0.22136543107392156  0.7769295941975665  1.0000
  C   C22       1.0  0.7727561050812892  0.778634568082967  0.22307040591886168  1.0000
  C   C23       1.0  0.4128361942529316  0.1914750999974448  0.7584677772119203  1.0000
  C   C24       1.0  0.58716380552549  0.8085249003263334  0.24153222290248672  1.0000
  C   C25       1.0  0.6901377844537437  0.2875779347545738  0.03269042584063329  1.0000
  C   C26       1.0  0.3098622167510502  0.712422065575654  0.9673095742727104  1.0000
  C   C27       1.0  0.7468368093388468  0.12811510627649042  0.061376374859769725  1.0000
  C   C28       1.0  0.2531631904395748  0.8718848940472878  0.9386236252546373  1.0000
  N   N1        1.0  0.761016991020131  0.7201803661383502  0.6556900640039015  1.0000
  N   N2        1.0  0.2389830086614321  0.27981963301208873  0.34430993611359  1.0000
  N   N3        1.0  0.555759332646286  0.21265578073827288  0.8420723053241934  1.0000
  N   N4        1.0  0.444240668558508  0.7873442195919549  0.1579276947891504  1.0000
  O   O1        1.0  0.7282018034671951  0.7889841772414542  0.4848984738061333  1.0000
  O   O2        1.0  0.2717981963112264  0.2110158230823238  0.5151015263082737  1.0000
  O   O3        1.0  0.9582210169417107  0.5718055615958267  0.7841433626846006  1.0000
  O   O4        1.0  0.04177898283671086  0.4281944387279513  0.21585663742980635  1.0000
  O   O5        1.0  0.6038841178830208  0.538734313113976  0.7716180934018798  1.0000
  O   O6        1.0  0.3961158817985421  0.46126568603646284  0.22838190671561162  1.0000
  O   O7        1.0  0.7352562255721155  0.18471634840417997  0.8220333422273246  1.0000
  O   O8        1.0  0.26474377420630607  0.8152836519195981  0.17796665788708235  1.0000
  S   S1        1.0  0.775075679456656  0.5610771610759889  0.7184204679371856  1.0000
  S   S2        1.0  0.2249243203217654  0.4389228392477892  0.2815795321772213  1.0000
  Br  Br1       1.0  0.7485571157050374  0.9335516097051518  0.737758415358033  1.0000
  Br  Br2       1.0  0.25144288407338405  0.06644839061862629  0.26224158475637394  1.0000
