data_image0
_chemical_formula_structural       H52C56N8O16S4Br4
_chemical_formula_sum              "H52 C56 N8 O16 S4 Br4"
_cell_length_a       10.790759603695857
_cell_length_b       10.767240096260869
_cell_length_c       13.315456260357537
_cell_angle_alpha    90.0
_cell_angle_beta     101.72474026972672
_cell_angle_gamma    90.0

_space_group_name_H-M_alt    "P 1"
_space_group_IT_number       1

loop_
  _space_group_symop_operation_xyz
  'x, y, z'

loop_
  _atom_site_type_symbol
  _atom_site_label
  _atom_site_symmetry_multiplicity
  _atom_site_fract_x
  _atom_site_fract_y
  _atom_site_fract_z
  _atom_site_occupancy
  H   H1        1.0  0.07917653727525564  0.22001291220604036  0.6954275130715032  1.0000
  H   H2        1.0  0.9208234624408163  0.720012912379675  0.8045724863104597  1.0000
  H   H3        1.0  0.9208234619790984  0.7799870872124859  0.30457248662036235  1.0000
  H   H4        1.0  0.07917653774200313  0.2799870879675943  0.19542751338853007  1.0000
  H   H5        1.0  0.16142908160431643  0.1616808146225462  0.540824961583887  1.0000
  H   H6        1.0  0.8385709182954708  0.6616808147961809  0.9591750385650533  1.0000
  H   H7        1.0  0.8385709176500378  0.8383191857247231  0.45917503810797844  1.0000
  H   H8        1.0  0.16142908207106393  0.3383191855510884  0.04082496190091393  1.0000
  H   H9        1.0  0.06528055112461567  0.24670761274492917  0.3702793304146422  1.0000
  H   H10       1.0  0.934719448596486  0.7467076129185638  0.12972066959425022  1.0000
  H   H11       1.0  0.9347194490582037  0.7532923876023401  0.6297206692843477  1.0000
  H   H12       1.0  0.06528055084158361  0.25329238742870547  0.8702793308645926  1.0000
  H   H13       1.0  0.8804298659530517  0.39146545097139057  0.34939938092090767  1.0000
  H   H14       1.0  0.11957013376804983  0.8914654502162821  0.15060061908798472  1.0000
  H   H15       1.0  0.11957013330130231  0.6085345493758787  0.6506006187709578  1.0000
  H   H16       1.0  0.880429866598485  0.10853454920224404  0.8493993813779824  1.0000
  H   H17       1.0  0.38289090350521143  0.555027139412942  0.7062946202891905  1.0000
  H   H18       1.0  0.6171090963945759  0.05502713923930736  0.7937053798597496  1.0000
  H   H19       1.0  0.6171090966776079  0.4449728600055842  0.29370537940979924  1.0000
  H   H20       1.0  0.38289090304349366  0.9449728601792189  0.20629462059909315  1.0000
  H   H21       1.0  0.46325868328925596  0.7693815328662373  0.038595129652365896  1.0000
  H   H22       1.0  0.5367413164318456  0.26938153269260273  0.4614048703565265  1.0000
  H   H23       1.0  0.5367413170772789  0.2306184674810319  0.9614048708136013  1.0000
  H   H24       1.0  0.4632586828225084  0.7306184667259235  0.5385951293353389  1.0000
  H   H25       1.0  0.5623767553728592  0.8386074889456272  0.8928934025024274  1.0000
  H   H26       1.0  0.43762324452692813  0.3386074887719926  0.6071065976465129  1.0000
  H   H27       1.0  0.4376232440652104  0.161392510472899  0.10710659795641543  1.0000
  H   H28       1.0  0.5623767556558912  0.6613925106465336  0.3928934020524769  1.0000
  H   H29       1.0  0.20316787966190192  0.5737249958924231  0.02134941318750977  1.0000
  H   H30       1.0  0.7968321209876649  0.07372499664753157  0.47865058682850703  1.0000
  H   H31       1.0  0.7968321205209176  0.4262750035261031  0.9786505865114801  1.0000
  H   H32       1.0  0.20316787919515444  0.9262750036997377  0.5213494128704829  1.0000
  H   H33       1.0  0.33821750439556053  0.6265725134468615  0.11117771903892687  1.0000
  H   H34       1.0  0.661782495325541  0.12657251327322694  0.3888222809699656  1.0000
  H   H35       1.0  0.6617824950425091  0.3734274869004077  0.888822281419916  1.0000
  H   H36       1.0  0.3382175048572783  0.8734274861452993  0.6111777187290243  1.0000
  H   H37       1.0  0.333133662322655  0.47275954975386036  0.06141999909685946  1.0000
  H   H38       1.0  0.6668663373984466  0.9727595499274949  0.4385800009120329  1.0000
  H   H39       1.0  0.6668663378601645  0.5272404496646659  0.9385800006021303  1.0000
  H   H40       1.0  0.3331336629680883  0.027240450419774295  0.5614199995539343  1.0000
  H   H41       1.0  0.16221308761261047  0.46385358228748047  0.849330472957406  1.0000
  H   H42       1.0  0.8377869122871769  0.9638535824611152  0.6506695271915344  1.0000
  H   H43       1.0  0.8377869125702089  0.5361464171310457  0.1506695267415838  1.0000
  H   H44       1.0  0.16221308715089264  0.03614641695741105  0.34933047326730854  1.0000
  H   H45       1.0  0.2933091178481317  0.3659096681022451  0.8971863338194606  1.0000
  H   H46       1.0  0.7066908820516556  0.8659096682758797  0.6028136663294797  1.0000
  H   H47       1.0  0.7066908823346877  0.6340903313162811  0.10281366587952924  1.0000
  H   H48       1.0  0.2933091183148792  0.13409033114264643  0.3971863341364876  1.0000
  H   H49       1.0  0.25494638913029943  0.40171268136781463  0.7646772156582158  1.0000
  H   H50       1.0  0.7450536107694878  0.9017126815414493  0.7353227844907245  1.0000
  H   H51       1.0  0.74505361105252  0.5982873189794546  0.23532278404077406  1.0000
  H   H52       1.0  0.25494638866858166  0.09828731880582  0.26467721596811833  1.0000
  C   C1        1.0  0.7713553892138517  0.4745302086998442  0.5152778920123801  1.0000
  C   C2        1.0  0.22864461068593558  0.9745302088734787  0.9847221081365602  1.0000
  C   C3        1.0  0.22864461115268309  0.525469790718682  0.4847221084535872  1.0000
  C   C4        1.0  0.7713553885684185  0.025469791473790474  0.015277891555305232  1.0000
  C   C5        1.0  0.878240859289809  0.3881344850340326  0.5110613494016161  1.0000
  C   C6        1.0  0.12175914060997847  0.8881344852076672  0.9889386507473242  1.0000
  C   C7        1.0  0.12175914089301051  0.6118655153132366  0.48893865029737377  1.0000
  C   C8        1.0  0.8782408597565564  0.11186551513960201  0.011061349718643011  1.0000
  C   C9        1.0  0.9356149503941523  0.34085418149768004  0.6071956998100525  1.0000
  C   C10       1.0  0.06438504932191957  0.8408541816713146  0.8928042995719104  1.0000
  C   C11       1.0  0.06438504978866709  0.6591458179208461  0.3928042998889374  1.0000
  C   C12       1.0  0.9356149499324344  0.15914581774721148  0.10719570011995502  1.0000
  C   C13       1.0  0.03676565002114029  0.2588342885534628  0.6208809349271834  1.0000
  C   C14       1.0  0.963234349878647  0.7588342887270975  0.8791190652217568  1.0000
  C   C15       1.0  0.9632343503453946  0.7411657108650634  0.3791190655387838  1.0000
  C   C16       1.0  0.036765649375707025  0.24116571162017186  0.12088093447010867  1.0000
  C   C17       1.0  0.0820280794231729  0.22578909620899557  0.5331401612219036  1.0000
  C   C18       1.0  0.917971920292899  0.7257890963826302  0.9668598381600594  1.0000
  C   C19       1.0  0.9179719198311811  0.7742109032095306  0.46685983846996193  1.0000
  C   C20       1.0  0.08202807988992038  0.27421090396463904  0.03314016153893042  1.0000
  C   C21       1.0  0.027169679354457753  0.2737393095769776  0.43675131912463905  1.0000
  C   C22       1.0  0.9728303203666439  0.7737393097506123  0.06324868088425332  1.0000
  C   C23       1.0  0.9728303200836117  0.7262606907702917  0.5632486813342038  1.0000
  C   C24       1.0  0.027169679816175615  0.22626069059665704  0.9367513188147365  1.0000
  C   C25       1.0  0.9240780701757277  0.3550025870907626  0.42444043208206456  1.0000
  C   C26       1.0  0.07592192954537381  0.8550025872643972  0.07555956792682786  1.0000
  C   C27       1.0  0.07592192926234177  0.6449974123277636  0.5755595683767784  1.0000
  C   C28       1.0  0.9240780706374456  0.14499741215412892  0.924440431772162  1.0000
  C   C29       1.0  0.39859686493161023  0.5961759134756529  0.7825777900671747  1.0000
  C   C30       1.0  0.6014031349681771  0.09617591423076136  0.7174222100817657  1.0000
  C   C31       1.0  0.6014031354349246  0.4038240859428733  0.21742221039879261  1.0000
  C   C32       1.0  0.39859686521464227  0.9038240861165079  0.2825777896172242  1.0000
  C   C33       1.0  0.34312668899750376  0.5510854338671783  0.8606037336802251  1.0000
  C   C34       1.0  0.6568733109022835  0.05108543369354373  0.6393962664687151  1.0000
  C   C35       1.0  0.6568733104405657  0.44891456648009087  0.13939626677861766  1.0000
  C   C36       1.0  0.34312668928053586  0.9489145666537256  0.3606037332302747  1.0000
  C   C37       1.0  0.3652829474959413  0.6137742913613473  0.9558145584039189  1.0000
  C   C38       1.0  0.634717052403846  0.11377429118771273  0.5441854417450213  1.0000
  C   C39       1.0  0.6347170526868781  0.3862257080571788  0.044185441295070814  1.0000
  C   C40       1.0  0.36528294796268884  0.8862257082308134  0.455814558720946  1.0000
  C   C41       1.0  0.4433550429397245  0.7184789566164209  0.9666073556505939  1.0000
  C   C42       1.0  0.5566449578885282  0.21847895644278625  0.533392644505471  1.0000
  C   C43       1.0  0.5566449574268104  0.28152104280210527  0.03339264481537351  1.0000
  C   C44       1.0  0.4433550422942912  0.7815210429757399  0.4666073551935189  1.0000
  C   C45       1.0  0.4985753113890839  0.7594291245385719  0.8875103814293527  1.0000
  C   C46       1.0  0.5014246894391687  0.2594291252936804  0.612489618726712  1.0000
  C   C47       1.0  0.5014246887937355  0.24057087487995427  0.11248961826963716  1.0000
  C   C48       1.0  0.4985753109273661  0.7405708750535889  0.3875103817392552  1.0000
  C   C49       1.0  0.30721251926254023  0.5701115313785676  0.042348766056452276  1.0000
  C   C50       1.0  0.6927874804585614  0.07011153120493303  0.4576512339524401  1.0000
  C   C51       1.0  0.6927874809202791  0.4298884689687016  0.9576512336425376  1.0000
  C   C52       1.0  0.3072125189795082  0.9298884691423364  0.5423487665064027  1.0000
  C   C53       1.0  0.2588013862844522  0.4397242457372328  0.8414920849036468  1.0000
  C   C54       1.0  0.7411986136153351  0.9397242449821244  0.6585079152452935  1.0000
  C   C55       1.0  0.7411986140820827  0.5602757546100365  0.15850791556232044  1.0000
  C   C56       1.0  0.2588013856390189  0.06027575443640185  0.3414920844465719  1.0000
  N   N1        1.0  0.7579066500358488  0.4864038178008799  0.6154209475116792  1.0000
  N   N2        1.0  0.24209334986393866  0.9864038170457715  0.8845790526372612  1.0000
  N   N3        1.0  0.2420933492185054  0.5135961825463893  0.3845790521801863  1.0000
  N   N4        1.0  0.7579066505025963  0.013596182372754733  0.11542094782870604  1.0000
  N   N5        1.0  0.4738506662681562  0.6982450203382045  0.7969433732447533  1.0000
  N   N6        1.0  0.5261493334479157  0.19824502109331288  0.7030566261372095  1.0000
  N   N7        1.0  0.5261493339146632  0.3017549790803218  0.20305662645423658  1.0000
  N   N8        1.0  0.4738506667349037  0.8017549792539563  0.2969433735617802  1.0000
  O   O1        1.0  0.7052107252873805  0.5273888507391952  0.4410079387155559  1.0000
  O   O2        1.0  0.29478927536218646  0.027388851494303586  0.05899206130046088  1.0000
  O   O3        1.0  0.294789274895439  0.4726111486793311  0.5589920609834339  1.0000
  O   O4        1.0  0.705210724820633  0.9726111488529657  0.9410079383985289  1.0000
  O   O5        1.0  0.7939627031219204  0.31195114903831545  0.7483412759327329  1.0000
  O   O6        1.0  0.20603729677786692  0.811951148283207  0.7516587242162076  1.0000
  O   O7        1.0  0.2060372972446144  0.6880488513089539  0.25165872453323446  1.0000
  O   O8        1.0  0.7939627034049526  0.1880488511353192  0.24834127548278234  1.0000
  O   O9        1.0  0.9433597662626337  0.4887751051290845  0.769422005651553  1.0000
  O   O10       1.0  0.05664023363715364  0.9887751053027192  0.7305779944973873  1.0000
  O   O11       1.0  0.05664023410390113  0.5112248942894416  0.23057799481441416  1.0000
  O   O12       1.0  0.9433597665456659  0.011224895044550123  0.26942200520160264  1.0000
  O   O13       1.0  0.5228699557125666  0.7436601504577429  0.7190806713707291  1.0000
  O   O14       1.0  0.47713004418722077  0.2436601502841083  0.7809193287782112  1.0000
  O   O15       1.0  0.4771300446539683  0.2563398489607832  0.2809193290952382  1.0000
  O   O16       1.0  0.5228699559955986  0.7563398491344179  0.2190806709207786  1.0000
  S   S1        1.0  0.8606320145109827  0.4048081013363518  0.7017569137455673  1.0000
  S   S2        1.0  0.13936798520508925  0.9048081015099865  0.7982430856363957  1.0000
  S   S3        1.0  0.13936798474337145  0.5951918980821744  0.29824308594629817  1.0000
  S   S4        1.0  0.8606320149777302  0.09519189883728282  0.20175691406259422  1.0000
  Br  Br1       1.0  0.6447878582224201  0.6068142255199601  0.666668522719419  1.0000
  Br  Br2       1.0  0.35521214149365177  0.10681422534632551  0.8333314766625441  1.0000
  Br  Br3       1.0  0.35521214196039924  0.393185773898566  0.3333314769795709  1.0000
  Br  Br4       1.0  0.6447878577607024  0.8931857740722007  0.16666852302932147  1.0000
