data_image0
_chemical_formula_structural       H52C72N8O16S4Br4
_chemical_formula_sum              "H52 C72 N8 O16 S4 Br4"
_cell_length_a       11.807183161136093
_cell_length_b       9.328369061415096
_cell_length_c       15.413030998167336
_cell_angle_alpha    90.0
_cell_angle_beta     104.0000360015925
_cell_angle_gamma    90.0

_space_group_name_H-M_alt    "P 1"
_space_group_IT_number       1

loop_
  _space_group_symop_operation_xyz
  'x, y, z'

loop_
  _atom_site_type_symbol
  _atom_site_label
  _atom_site_symmetry_multiplicity
  _atom_site_fract_x
  _atom_site_fract_y
  _atom_site_fract_z
  _atom_site_occupancy
  H   H1        1.0  0.41835645238974845  0.9019065824485847  0.977750364451117  1.0000
  H   H2        1.0  0.5816435478784602  0.4019065825244337  0.5222496360699441  1.0000
  H   H3        1.0  0.5816435474519615  0.09809341739971729  0.022249635743220794  1.0000
  H   H4        1.0  0.4183564519632498  0.5980934173238682  0.4777503641243936  1.0000
  H   H5        1.0  0.3422193999594825  0.9633105455882149  0.816573461227557  1.0000
  H   H6        1.0  0.6577806003087262  0.46331054566406393  0.6834265392935042  1.0000
  H   H7        1.0  0.6577805998822275  0.03668945426008701  0.1834265389667808  1.0000
  H   H8        1.0  0.3422193995329838  0.536689454184238  0.31657346090083366  1.0000
  H   H9        1.0  0.42541492814246434  0.8504117748528044  0.7010796444494629  1.0000
  H   H10       1.0  0.5745850719112567  0.3504117749286534  0.7989203554029394  1.0000
  H   H11       1.0  0.574585071484758  0.1495882249954976  0.29892035507621606  1.0000
  H   H12       1.0  0.42541492793045327  0.6495882249196485  0.20107964479139837  1.0000
  H   H13       1.0  0.5879160887278897  0.6724842401387977  0.7433037426391066  1.0000
  H   H14       1.0  0.41208391132583144  0.17248424021464673  0.7566962572132958  1.0000
  H   H15       1.0  0.4120839108993328  0.32751575970950425  0.25669625688657244  1.0000
  H   H16       1.0  0.5879160893619858  0.8275157596336552  0.243303742978419  1.0000
  H   H17       1.0  0.027948591101849492  0.4115914770011853  0.1947713101502029  1.0000
  H   H18       1.0  0.9720514091594691  0.9115914769253362  0.30522868971478856  1.0000
  H   H19       1.0  0.9720514087398605  0.5884085228471166  0.8052286900441349  1.0000
  H   H20       1.0  0.027948591313860564  0.08840852292296564  0.6947713098082674  1.0000
  H   H21       1.0  0.14994621352687404  0.4915477753733312  0.3406412197813916  1.0000
  H   H22       1.0  0.8500537858883372  0.9915477752974823  0.15935878008622278  1.0000
  H   H23       1.0  0.850053786314836  0.5084522244749707  0.6593587804129462  1.0000
  H   H24       1.0  0.14994621373888517  0.008452224550819743  0.8406412194394562  1.0000
  H   H25       1.0  0.950238285064903  0.2023916536288495  0.4668424243561803  1.0000
  H   H26       1.0  0.04976171456479584  0.7023916535530005  0.03315757618009288  1.0000
  H   H27       1.0  0.04976171477680698  0.7976083462194524  0.5331575758381575  1.0000
  H   H28       1.0  0.9502382852769141  0.2976083462953014  0.9668424240142449  1.0000
  H   H29       1.0  0.8360329208729461  0.13832800476745424  0.3165946642428061  1.0000
  H   H30       1.0  0.1639670785422653  0.6383280046916052  0.1834053356248083  1.0000
  H   H31       1.0  0.16396707875427638  0.8616719950808478  0.6834053352828728  1.0000
  H   H32       1.0  0.8360329212994447  0.36167199515669674  0.8165946645695294  1.0000
  H   H33       1.0  0.2195969876762621  0.5757904039428304  0.45540543011806517  1.0000
  H   H34       1.0  0.7804030125850563  0.07579040401867948  0.04459456974692629  1.0000
  H   H35       1.0  0.7804030119509603  0.42420959590547147  0.5445945694076137  1.0000
  H   H36       1.0  0.21959698810276077  0.9242095958296224  0.9554054304447885  1.0000
  H   H37       1.0  0.33611252970836625  0.6557127574744672  0.601475538238338  1.0000
  H   H38       1.0  0.6638874694992476  0.15571275755031624  0.8985244616166873  1.0000
  H   H39       1.0  0.6638874701333438  0.34428724237383473  0.3985244619559997  1.0000
  H   H40       1.0  0.33611253012797476  0.8442872422979856  0.10147553790899169  1.0000
  H   H41       1.0  0.3172623680626294  0.5330721283925758  0.7413364967312093  1.0000
  H   H42       1.0  0.682737631359472  0.033072128468424875  0.7586635037924748  1.0000
  H   H43       1.0  0.6827376317790804  0.4669278714557261  0.2586635034631284  1.0000
  H   H44       1.0  0.317262368482238  0.966927871379877  0.24133649640186305  1.0000
  H   H45       1.0  0.17726061591407996  0.3314071923662749  0.7316116896683177  1.0000
  H   H46       1.0  0.8227393841396411  0.8314071922904259  0.7683883101840846  1.0000
  H   H47       1.0  0.8227393847737371  0.668592807482027  0.26838831052339707  1.0000
  H   H48       1.0  0.17726061548758132  0.16859280755787606  0.23161168934159443  1.0000
  H   H49       1.0  0.060373802201845884  0.24950753606299997  0.585389606628437  1.0000
  H   H50       1.0  0.9396261970057679  0.7495075359871509  0.9146103932265883  1.0000
  H   H51       1.0  0.9396261976398641  0.750492463785302  0.4146103935659008  1.0000
  H   H52       1.0  0.0603738026214544  0.250492463861151  0.08538960629909066  1.0000
  C   C1        1.0  0.6848115348097128  0.5810021209836038  0.9219301370602577  1.0000
  C   C2        1.0  0.31518846524400834  0.08100212105945283  0.5780698627921447  1.0000
  C   C3        1.0  0.31518846566361686  0.41899787886469814  0.07806986246279837  1.0000
  C   C4        1.0  0.6848115345977016  0.9189978787888491  0.42193013740219315  1.0000
  C   C5        1.0  0.5913057281430177  0.6856361886940352  0.883538109351929  1.0000
  C   C6        1.0  0.4086942719107033  0.18563618876988416  0.6164618905004734  1.0000
  C   C7        1.0  0.4086942716986922  0.31436381115426676  0.11646189084240874  1.0000
  C   C8        1.0  0.5913057279310066  0.8143638110784177  0.3835381096938644  1.0000
  C   C9        1.0  0.5429114639999901  0.7507726156513779  0.9477677092644289  1.0000
  C   C10       1.0  0.4570885360537309  0.2507726157272269  0.5522322905879736  1.0000
  C   C11       1.0  0.45708853584171977  0.24922738419692406  0.052232290929908956  1.0000
  C   C12       1.0  0.542911463787979  0.749227384121075  0.44776770960636425  1.0000
  C   C13       1.0  0.4540443972194441  0.8513697268743385  0.9265730574457768  1.0000
  C   C14       1.0  0.5459556030487646  0.3513697269501876  0.5734269430752845  1.0000
  C   C15       1.0  0.5459556026222657  0.14863027297396336  0.07342694274856111  1.0000
  C   C16       1.0  0.4540443976390527  0.6486302728981144  0.42657305711643034  1.0000
  C   C17       1.0  0.4118425783885004  0.8848491430449316  0.8360891181458446  1.0000
  C   C18       1.0  0.5881574216652207  0.38484914204878184  0.6639108817065579  1.0000
  C   C19       1.0  0.5881574214532095  0.11515085787536909  0.16391088204849322  1.0000
  C   C20       1.0  0.4118425781764893  0.6151508577995201  0.33608911848777995  1.0000
  C   C21       1.0  0.45865027420488436  0.8201144508362173  0.7707235081103229  1.0000
  C   C22       1.0  0.5413497258488367  0.32011445091206625  0.7292764917420795  1.0000
  C   C23       1.0  0.5413497254223381  0.17988554901208473  0.22927649141535617  1.0000
  C   C24       1.0  0.4586502739928732  0.6798855489362358  0.27072350845225823  1.0000
  C   C25       1.0  0.5493473073985915  0.7204825008264036  0.7937696179790235  1.0000
  C   C26       1.0  0.4506526926551295  0.2204825009022527  0.7062303818733789  1.0000
  C   C27       1.0  0.45065269222863086  0.27951749902189826  0.20623038154665557  1.0000
  C   C28       1.0  0.5493473071865804  0.7795174989460493  0.2937696183209589  1.0000
  C   C29       1.0  0.016903134847025412  0.369999067069117  0.2579745218631205  1.0000
  C   C30       1.0  0.9830968654142931  0.8699990669932679  0.24202547800187096  1.0000
  C   C31       1.0  0.9830968649946845  0.6300009327791849  0.7420254783312173  1.0000
  C   C32       1.0  0.01690313505903649  0.13000093285503397  0.757974521521185  1.0000
  C   C33       1.0  0.08315590737124852  0.4115939308063306  0.3402132340530217  1.0000
  C   C34       1.0  0.9168440920439628  0.9115939307304816  0.15978676581459267  1.0000
  C   C35       1.0  0.9168440922559737  0.5884060690419713  0.6597867654726572  1.0000
  C   C36       1.0  0.08315590779774724  0.08840606911782035  0.8402132343797452  1.0000
  C   C37       1.0  0.06361725341447663  0.355194185412875  0.4202149090599121  1.0000
  C   C38       1.0  0.9363827468468419  0.8551941864090247  0.0797850908050793  1.0000
  C   C39       1.0  0.9363827464272333  0.644805814435427  0.5797850911344257  1.0000
  C   C40       1.0  0.06361725384097534  0.144805814511276  0.9202149093866355  1.0000
  C   C41       1.0  0.9741940386635008  0.25227694621711333  0.4099666790405914  1.0000
  C   C42       1.0  0.02580596159781771  0.7522769461412643  0.09003332082440003  1.0000
  C   C43       1.0  0.02580596117820921  0.7477230547031873  0.5900333211537464  1.0000
  C   C44       1.0  0.9741940390899995  0.24772305370703765  0.9099666793673148  1.0000
  C   C45       1.0  0.9083471559800872  0.21335914315745097  0.32639619881651905  1.0000
  C   C46       1.0  0.09165284428123138  0.7133591430816019  0.17360380104847242  1.0000
  C   C47       1.0  0.09165284364713526  0.786640856690851  0.6736038007091599  1.0000
  C   C48       1.0  0.9083471564065858  0.2866408567667  0.8263961991432424  1.0000
  C   C49       1.0  0.13238384558556276  0.4037736570243097  0.5081927407342528  1.0000
  C   C50       1.0  0.8676161544681584  0.9037736569484606  0.9918072591181496  1.0000
  C   C51       1.0  0.8676161542561474  0.5962263428239923  0.49180725946008497  1.0000
  C   C52       1.0  0.13238384537355166  0.09622634289984133  0.008192741076188264  1.0000
  C   C53       1.0  0.21115775300807452  0.5190320889025288  0.5151462799169668  1.0000
  C   C54       1.0  0.7888422470456465  0.019032087906379183  0.9848537199354355  1.0000
  C   C55       1.0  0.7888422474652551  0.4809679120177718  0.4848537196060892  1.0000
  C   C56       1.0  0.2111577527960634  0.9809679119419228  0.015146280258902254  1.0000
  C   C57       1.0  0.27691747009257167  0.5650138052321497  0.597980232130719  1.0000
  C   C58       1.0  0.7230825299611494  0.06501380530799875  0.9020197677216834  1.0000
  C   C59       1.0  0.7230825297491383  0.43498619461615223  0.4020197680636188  1.0000
  C   C60       1.0  0.27691746988056054  0.9349861945403032  0.09798023247265443  1.0000
  C   C61       1.0  0.2653341674119581  0.49793175949830815  0.6763874778423099  1.0000
  C   C62       1.0  0.7346658317956558  0.9979317594224592  0.8236125220127155  1.0000
  C   C63       1.0  0.7346658322152644  0.5020682414219926  0.3236125216833691  1.0000
  C   C64       1.0  0.26533416804605414  0.0020682414978415572  0.17638747818162234  1.0000
  C   C65       1.0  0.18626144879177087  0.384881134779562  0.6707783743529266  1.0000
  C   C66       1.0  0.8137385512619503  0.8848811347037129  0.8292216254994758  1.0000
  C   C67       1.0  0.8137385518960463  0.6151188650687399  0.3292216258387882  1.0000
  C   C68       1.0  0.18626144857975974  0.11511886514458892  0.170778374694862  1.0000
  C   C69       1.0  0.12088504119225155  0.33828737576998175  0.5878864430950634  1.0000
  C   C70       1.0  0.8791149590759572  0.8382873756941327  0.9121135574259978  1.0000
  C   C71       1.0  0.8791149586494584  0.6617126240783202  0.41211355709927433  1.0000
  C   C72       1.0  0.12088504161186006  0.16171262415416926  0.08788644276571718  1.0000
  N   N1        1.0  0.7042676688412862  0.581100755588854  0.014365432871406649  1.0000
  N   N2        1.0  0.29573233142003225  0.08110075566470294  0.4856345669935848  1.0000
  N   N3        1.0  0.29573233078593614  0.418899244259448  0.9856345666542724  1.0000
  N   N4        1.0  0.7042676692677851  0.9188992441835989  0.51436543319813  1.0000
  N   N5        1.0  0.9299682300183164  0.2721410359395552  0.25147614791768313  1.0000
  N   N6        1.0  0.07003177024300214  0.7721410358637061  0.24852385194730833  1.0000
  N   N7        1.0  0.07003177066950088  0.7278589639087468  0.7485238522740318  1.0000
  N   N8        1.0  0.9299682293842204  0.2278589639845958  0.7514761475783708  1.0000
  O   O1        1.0  0.7380942944541021  0.5052277219063044  0.8796260385916449  1.0000
  O   O2        1.0  0.26190570559961895  0.005227721982153467  0.6203739612607574  1.0000
  O   O3        1.0  0.2619057053876079  0.4947722779419975  0.12037396160269288  1.0000
  O   O4        1.0  0.7380942950881981  0.9947722778661485  0.37962603893095737  1.0000
  O   O5        1.0  0.6726309265065397  0.7936445547188629  0.11266677541764107  1.0000
  O   O6        1.0  0.32736907375477886  0.29364455479471185  0.38733322444735035  1.0000
  O   O7        1.0  0.32736907333517035  0.2063554451294391  0.8873332247766967  1.0000
  O   O8        1.0  0.6726309267185507  0.70635544505359  0.6126667750757057  1.0000
  O   O9        1.0  0.5320441351145456  0.593890853109063  0.09026362180809952  1.0000
  O   O10       1.0  0.4679558643006656  0.09389085318491198  0.4097363780595149  1.0000
  O   O11       1.0  0.46795586472716433  0.406109146739239  0.9097363783862383  1.0000
  O   O12       1.0  0.5320441355410443  0.9061091466633898  0.5902636221348229  1.0000
  O   O13       1.0  0.865899504929745  0.23262365647343022  0.17136704733938785  1.0000
  O   O14       1.0  0.13410049448546627  0.7326236563975812  0.32863295252822655  1.0000
  O   O15       1.0  0.134100494911965  0.7673763444468705  0.82863295285495  1.0000
  O   O16       1.0  0.8658995053562438  0.2673763434507207  0.6713670476661113  1.0000
  S   S1        1.0  0.6098112711885291  0.6832037570598865  0.054449584432744766  1.0000
  S   S2        1.0  0.3901887292872771  0.1832037571357355  0.4455504161009055  1.0000
  S   S3        1.0  0.3901887294992882  0.31679624278841545  0.9455504157589701  1.0000
  S   S4        1.0  0.609811270554433  0.8167962427125665  0.5544495840934324  1.0000
  Br  Br1       1.0  0.7834017133467132  0.4213554849858976  0.08793044579677535  1.0000
  Br  Br2       1.0  0.21659828691460525  0.9213554849100486  0.41206955406821616  1.0000
  Br  Br3       1.0  0.21659828649499674  0.5786445148624043  0.9120695543975624  1.0000
  Br  Br4       1.0  0.783401713773212  0.07864451493825336  0.5879304461234988  1.0000
