data_image0
_chemical_formula_structural       H26C28N4O8S2I2
_chemical_formula_sum              "H26 C28 N4 O8 S2 I2"
_cell_length_a       7.939037673661214
_cell_length_b       8.638229240067743
_cell_length_c       12.38795601470536
_cell_angle_alpha    108.97900392901575
_cell_angle_beta     104.84026619408507
_cell_angle_gamma    93.17639085632607

_space_group_name_H-M_alt    "P 1"
_space_group_IT_number       1

loop_
  _space_group_symop_operation_xyz
  'x, y, z'

loop_
  _atom_site_type_symbol
  _atom_site_label
  _atom_site_symmetry_multiplicity
  _atom_site_fract_x
  _atom_site_fract_y
  _atom_site_fract_z
  _atom_site_occupancy
  H   H1        1.0  0.31070065038242967  0.13971594262099035  0.6032461213570142  1.0000
  H   H2        1.0  0.6892993488447137  0.8602840573041133  0.39675387790733047  1.0000
  H   H3        1.0  0.11048677879094762  0.9430866341311417  0.4127418675479511  1.0000
  H   H4        1.0  0.8895132207473324  0.056913365071269255  0.5872581326091252  1.0000
  H   H5        1.0  0.9552436298322946  0.043899833078529994  0.25366838721288526  1.0000
  H   H6        1.0  0.04475636978392071  0.9561001672829538  0.74633161294352  1.0000
  H   H7        1.0  0.0006835763767543538  0.34705638953809925  0.2824718304356314  1.0000
  H   H8        1.0  0.999316422850389  0.6529436103870045  0.7175281688287133  1.0000
  H   H9        1.0  0.09436520899068733  0.22623371987615506  0.08176716918650717  1.0000
  H   H10       1.0  0.9056347905475925  0.7737662793262561  0.9182328309705692  1.0000
  H   H11       1.0  0.06640840254942107  0.38134336432208366  0.7804399717302912  1.0000
  H   H12       1.0  0.933591596988859  0.6186566348803275  0.21956002842678513  1.0000
  H   H13       1.0  0.739973837944538  0.2990445641592119  0.7186221663592594  1.0000
  H   H14       1.0  0.26002616159374176  0.7009554350431992  0.28137783379781683  1.0000
  H   H15       1.0  0.6644501033269492  0.2198916040034544  0.06970958257018967  1.0000
  H   H16       1.0  0.3355498962892663  0.7801083963580294  0.9302904175862158  1.0000
  H   H17       1.0  0.8283386602758055  0.09367642260627411  0.0946969012863479  1.0000
  H   H18       1.0  0.1716613393404099  0.9063235777552097  0.9053030988700574  1.0000
  H   H19       1.0  0.6420217160545876  0.01732240939030024  0.9652629630955081  1.0000
  H   H20       1.0  0.35797828348369237  0.9826775898121108  0.03473703706156822  1.0000
  H   H21       1.0  0.36848019602861176  0.29800908859708514  0.9155596178818212  1.0000
  H   H22       1.0  0.6315198047668649  0.7019909105955024  0.08444038227083513  1.0000
  H   H23       1.0  0.36201225264212833  0.34448243171486964  0.06587760160381019  1.0000
  H   H24       1.0  0.6379877469740872  0.6555175686466141  0.9341223985525953  1.0000
  H   H25       1.0  0.33603968176314136  0.4960240797651927  0.9973195221432194  1.0000
  H   H26       1.0  0.6639603191102708  0.5039759205864677  0.0026804780087658644  1.0000
  C   C1        1.0  0.22449320931386876  0.5940158576800921  0.4940619198042883  1.0000
  C   C2        1.0  0.7755067903023466  0.4059841426813916  0.5059380803521171  1.0000
  C   C3        1.0  0.18131031760031088  0.4102432594354853  0.4579152806243647  1.0000
  C   C4        1.0  0.8186896832731013  0.589756740916175  0.5420847195276206  1.0000
  C   C5        1.0  0.2659303180811829  0.35000607158321057  0.5462415009269961  1.0000
  C   C6        1.0  0.7340696827922292  0.6499939287684497  0.45375849922498923  1.0000
  C   C7        1.0  0.24358161244136237  0.18404194158661327  0.5332263690181339  1.0000
  C   C8        1.0  0.7564183884320497  0.8159580587650469  0.46677363113385134  1.0000
  C   C9        1.0  0.13045586500644693  0.07434310281793534  0.4254897689688927  1.0000
  C   C10       1.0  0.8695441346097684  0.9256568975435484  0.5745102311875127  1.0000
  C   C11       1.0  0.04431351123297576  0.13223931609794295  0.3359457550399187  1.0000
  C   C12       1.0  0.9556864883832397  0.8677606842635407  0.6640542451164866  1.0000
  C   C13       1.0  0.06865041164751559  0.3003225020092729  0.3508961796384865  1.0000
  C   C14       1.0  0.9313495879686998  0.6996774983522108  0.6491038205179189  1.0000
  C   C15       1.0  0.8383883088881027  0.19516117186582907  0.9613981980255821  1.0000
  C   C16       1.0  0.16161169065017728  0.804838827336582  0.03860180213149426  1.0000
  C   C17       1.0  0.020545743034000225  0.2419034009359913  0.9996849474476549  1.0000
  C   C18       1.0  0.9794542565822152  0.7580965994254925  0.00031505270875050036  1.0000
  C   C19       1.0  0.10922862024373131  0.3111377085002992  0.9381709677810324  1.0000
  C   C20       1.0  0.8907713789834119  0.6888622914248047  0.061829031483312334  1.0000
  C   C21       1.0  0.006878740450617602  0.32980149348245974  0.8337513411088749  1.0000
  C   C22       1.0  0.9931212591655979  0.670198506879024  0.16624865904753042  1.0000
  C   C23       1.0  0.826577357200959  0.2841292180068227  0.7968021248212985  1.0000
  C   C24       1.0  0.17342264241525635  0.7158707823546611  0.20319787533510678  1.0000
  C   C25       1.0  0.7377265061856646  0.1269287971038576  0.0258883383416099  1.0000
  C   C26       1.0  0.2622734946098121  0.87307120208873  0.9741116618110464  1.0000
  C   C27       1.0  0.3038791780996552  0.36395145465639794  0.9820364299017338  1.0000
  C   C28       1.0  0.6961208227737571  0.6360485456952624  0.01796357025025157  1.0000
  N   N1        1.0  0.3440519608547572  0.656562382770026  0.6069738314073629  1.0000
  N   N2        1.0  0.655948040018655  0.3434376175816344  0.3930261687446223  1.0000
  N   N3        1.0  0.7458404143775822  0.2200991064986272  0.8604267516244287  1.0000
  N   N4        1.0  0.25415958649583  0.7799008938530331  0.13957324852755654  1.0000
  O   O1        1.0  0.16418217451808476  0.6788084641685777  0.4347282467689138  1.0000
  O   O2        1.0  0.8358178262773919  0.32119153502401  0.5652717533837424  1.0000
  O   O3        1.0  0.5798313639358577  0.510487261696708  0.6997474374743168  1.0000
  O   O4        1.0  0.4201686356803578  0.48951273866477574  0.3002525626820886  1.0000
  O   O5        1.0  0.3163158384030569  0.5448376050905177  0.7707769440856692  1.0000
  O   O6        1.0  0.6836841624703555  0.45516239526114266  0.2292230560663162  1.0000
  O   O7        1.0  0.5683889434960541  0.18676515261599652  0.8246340105108513  1.0000
  O   O8        1.0  0.4316110557310891  0.8132348473091072  0.17536598875349335  1.0000
  S   S1        1.0  0.3926378218467283  0.5171403705509965  0.6726265345801032  1.0000
  S   S2        1.0  0.6073621777694872  0.4828596298104874  0.3273734655763021  1.0000
  I   I1        1.0  0.45571124178251665  0.9125868293451885  0.7100599333769181  1.0000
  I   I2        1.0  0.5442887578336987  0.08741317101629521  0.2899400667794872  1.0000
