data_image0
_chemical_formula_structural       H52C72N8O16S4I4
_chemical_formula_sum              "H52 C72 N8 O16 S4 I4"
_cell_length_a       8.61453668084779
_cell_length_b       13.113034118683405
_cell_length_c       15.385051905252237
_cell_angle_alpha    90.0
_cell_angle_beta     97.04305434839813
_cell_angle_gamma    90.0

_space_group_name_H-M_alt    "P 1"
_space_group_IT_number       1

loop_
  _space_group_symop_operation_xyz
  'x, y, z'

loop_
  _atom_site_type_symbol
  _atom_site_label
  _atom_site_symmetry_multiplicity
  _atom_site_fract_x
  _atom_site_fract_y
  _atom_site_fract_z
  _atom_site_occupancy
  H   H1        1.0  0.35447382751626905  0.36957978345339554  0.9630264161414557  1.0000
  H   H2        1.0  0.14552617273264665  0.8695797835035972  0.5369735839502436  1.0000
  H   H3        1.0  0.6455261724821598  0.630420216647008  0.03697358375805238  1.0000
  H   H4        1.0  0.8544738272657821  0.13042021659680625  0.46302641594926436  1.0000
  H   H5        1.0  0.48052931818044514  0.3119311795408252  0.1085590245851051  1.0000
  H   H6        1.0  0.019470681164107558  0.8119311788284269  0.3914409750388309  1.0000
  H   H7        1.0  0.5194706818179837  0.6880688205595783  0.891440975314403  1.0000
  H   H8        1.0  0.9805293188343213  0.18806882050937654  0.6085590248606771  1.0000
  H   H9        1.0  0.31871625048188645  0.25431368360801826  0.22262664090155468  1.0000
  H   H10       1.0  0.18128374901189379  0.7543136836582199  0.27737335937729646  1.0000
  H   H11       1.0  0.6812837495165424  0.7456863157297853  0.7773733589979535  1.0000
  H   H12       1.0  0.8187162509865351  0.2456863164421835  0.7226266405222116  1.0000
  H   H13       1.0  0.0274670407619912  0.25661814645975023  0.19356510338061111  1.0000
  H   H14       1.0  0.47253295873178897  0.756618145747352  0.30643489689824  1.0000
  H   H15       1.0  0.9725329593856652  0.7433818536406532  0.8064348971738121  1.0000
  H   H16       1.0  0.5274670412666398  0.24338185359045153  0.6935651030012681  1.0000
  H   H17       1.0  0.3223885661334834  0.5441123492414413  0.8492028144659006  1.0000
  H   H18       1.0  0.1776114341154323  0.044112349191239505  0.6507971856257986  1.0000
  H   H19       1.0  0.677611434014173  0.4558876508589622  0.15079718608852255  1.0000
  H   H20       1.0  0.8223885658829966  0.9558876509091639  0.3492028142737094  1.0000
  H   H21       1.0  0.24835095331843102  0.698927977083629  0.7557038305260703  1.0000
  H   H22       1.0  0.2516490469304847  0.19892797703342724  0.7442961695656292  1.0000
  H   H23       1.0  0.7516490468292253  0.30107202301677455  0.24429617002835308  1.0000
  H   H24       1.0  0.7483509530679441  0.8010720230669762  0.2557038303338789  1.0000
  H   H25       1.0  0.21336209070520884  0.6807367867122011  0.5932733002738241  1.0000
  H   H26       1.0  0.2866379095437068  0.18073678666199924  0.9067266998178753  1.0000
  H   H27       1.0  0.78663790929322  0.3192632133882025  0.40672669962568403  1.0000
  H   H28       1.0  0.713362090454722  0.8192632134384042  0.09327330008163273  1.0000
  H   H29       1.0  0.31895070621339855  0.3587396804906899  0.6309889775690861  1.0000
  H   H30       1.0  0.18104929287542118  0.8587396805408916  0.8690110225258922  1.0000
  H   H31       1.0  0.6810492937850302  0.6412603196097136  0.3690110223304219  1.0000
  H   H32       1.0  0.8189507071230075  0.14126031955951188  0.13098897737361584  1.0000
  H   H33       1.0  0.056540459822889216  0.61219368434054  0.475970981312813  1.0000
  H   H34       1.0  0.44345954068175936  0.11219368429033827  0.024029018307843864  1.0000
  H   H35       1.0  0.9434595401755396  0.38780631575986346  0.524029018586695  1.0000
  H   H36       1.0  0.5565404593166695  0.8878063158100653  0.9759709815916642  1.0000
  H   H37       1.0  0.023428782941674286  0.5855868382939112  0.3151050226211975  1.0000
  H   H38       1.0  0.47657121640287836  0.08558683824370947  0.18489497700273846  1.0000
  H   H39       1.0  0.9765712170567544  0.4144131618064923  0.6848949772783105  1.0000
  H   H40       1.0  0.5234287835955505  0.914413161856694  0.8151050228967696  1.0000
  H   H41       1.0  0.1858840362019753  0.4586859612780374  0.24882636008144446  1.0000
  H   H42       1.0  0.3141159632918049  0.9586859613282392  0.2511736401974067  1.0000
  H   H43       1.0  0.8141159637964536  0.5413140388223661  0.7511736398180635  1.0000
  H   H44       1.0  0.6858840367066239  0.04131403877216434  0.7488263597021014  1.0000
  H   H45       1.0  0.3903800678128595  0.36047015413962735  0.3441209122429202  1.0000
  H   H46       1.0  0.1096199326917891  0.8604701541898292  0.15587908737773676  1.0000
  H   H47       1.0  0.6096199321855693  0.6395298459607761  0.6558790876565879  1.0000
  H   H48       1.0  0.8903800673066397  0.13952984591057438  0.8441209125217713  1.0000
  H   H49       1.0  0.4301078902114185  0.39140491922363135  0.5036036091131249  1.0000
  H   H50       1.0  0.06989211003749721  0.8914049192738331  0.9963963909785746  1.0000
  H   H51       1.0  0.5698921097870103  0.6085950808767722  0.49639639078638315  1.0000
  H   H52       1.0  0.9301078899609317  0.10859508082657042  0.003603608920933596  1.0000
  C   C1        1.0  0.8582236212477113  0.3189723707071356  0.030569479594566847  1.0000
  C   C2        1.0  0.6417763785002306  0.8189723707573373  0.46943052011274994  1.0000
  C   C3        1.0  0.14177637875071744  0.6810276293932679  0.9694305203049411  1.0000
  C   C4        1.0  0.3582236214981982  0.18102762934306618  0.5305694797867582  1.0000
  C   C5        1.0  0.028587299861233147  0.3098345862008576  0.060703930429967023  1.0000
  C   C6        1.0  0.4714126996325471  0.8098345862510594  0.4392960698488841  1.0000
  C   C7        1.0  0.9714127001371957  0.690165413899546  0.939296069469541  1.0000
  C   C8        1.0  0.5285873005151093  0.19016541384934418  0.5607039307055391  1.0000
  C   C9        1.0  0.12186011874400074  0.3405548006343762  0.9972636467936713  1.0000
  C   C10       1.0  0.378139881504915  0.8405548006845779  0.5027363532980281  1.0000
  C   C11       1.0  0.8781398812544281  0.6594451994660273  0.0027363531058368093  1.0000
  C   C12       1.0  0.6218601184935139  0.15944519941582558  0.4972636466014799  1.0000
  C   C13       1.0  0.2837075414659835  0.3441711764914659  0.012881018471361695  1.0000
  C   C14       1.0  0.2162924591878927  0.8441711765416676  0.4871189818042104  1.0000
  C   C15       1.0  0.7162924586816729  0.6558288236089377  0.9871189820830616  1.0000
  C   C16       1.0  0.7837075408105361  0.1558288235587359  0.5128810180952976  1.0000
  C   C17       1.0  0.35328807053540034  0.3124718812530169  0.09542474015011086  1.0000
  C   C18       1.0  0.14671192880915232  0.8124718813032187  0.40457525947382506  1.0000
  C   C19       1.0  0.6467119294630285  0.6875281188473866  0.9045752597493971  1.0000
  C   C20       1.0  0.8532880711892764  0.18752811879718487  0.5954247404256829  1.0000
  C   C21       1.0  0.26184120506594144  0.27984954487165237  0.1592493541670136  1.0000
  C   C22       1.0  0.23815879442783877  0.7798495449218542  0.34075064611183753  1.0000
  C   C23       1.0  0.7381587949324875  0.7201504552287512  0.8407506457324945  1.0000
  C   C24       1.0  0.7618412057198176  0.2201504551785494  0.6592493544425857  1.0000
  C   C25       1.0  0.09862442730166907  0.2791892133326943  0.14288697732566444  1.0000
  C   C26       1.0  0.40137557320297956  0.779189213382896  0.35711302229499237  1.0000
  C   C27       1.0  0.9013755726967597  0.7208107867677092  0.8571130225738436  1.0000
  C   C28       1.0  0.5986244267954492  0.22081078671750748  0.6428869776045156  1.0000
  C   C29       1.0  0.30613834871816303  0.5420208836239665  0.7781295343986763  1.0000
  C   C30       1.0  0.1938616503706567  0.04202088357376473  0.7218704656963022  1.0000
  C   C31       1.0  0.6938616512802658  0.457979115713837  0.2218704655008318  1.0000
  C   C32       1.0  0.8061383496277722  0.9579791157640388  0.2781295342032059  1.0000
  C   C33       1.0  0.2641864965218176  0.6254190163598403  0.7252199592628348  1.0000
  C   C34       1.0  0.23581350372709808  0.12541901630963848  0.7747800408288646  1.0000
  C   C35       1.0  0.7358135036258387  0.37458098374056326  0.2747800412915885  1.0000
  C   C36       1.0  0.7641864962713306  0.8745809837907651  0.22521995907064343  1.0000
  C   C37       1.0  0.2435312666561551  0.6145767765918959  0.6345941644073534  1.0000
  C   C38       1.0  0.25646873359276057  0.11457677654169417  0.8654058356843458  1.0000
  C   C39       1.0  0.7564687333422736  0.3854232235085076  0.36540583549215455  1.0000
  C   C40       1.0  0.7435312664056682  0.8854232235587094  0.13459416421516218  1.0000
  C   C41       1.0  0.26523941375394067  0.5190807679133392  0.5967110257996112  1.0000
  C   C42       1.0  0.23476058634574742  0.019080767863137508  0.9032889736371729  1.0000
  C   C43       1.0  0.7347605862444881  0.4809192321870642  0.4032889740998969  1.0000
  C   C44       1.0  0.7652394136526813  0.9809192322372661  0.09671102626233509  1.0000
  C   C45       1.0  0.3067128927925929  0.4370943130418299  0.6526750436661946  1.0000
  C   C46       1.0  0.19328710745632274  0.9370943123294315  0.8473249564255048  1.0000
  C   C47       1.0  0.6932871072058359  0.5629056870585737  0.34732495623331344  1.0000
  C   C48       1.0  0.8067128925421061  0.06290568700837189  0.1526750434740033  1.0000
  C   C49       1.0  0.24478603174451863  0.5029304156696692  0.5011725465043214  1.0000
  C   C50       1.0  0.25521396850439704  0.0029304156194674925  0.9988274535873778  1.0000
  C   C51       1.0  0.7552139682539102  0.4970695844307343  0.49882745339518664  1.0000
  C   C52       1.0  0.7447860314940318  0.997069584480936  0.0011725463121301514  1.0000
  C   C53       1.0  0.13139573818195338  0.5581510338306707  0.4470342112938801  1.0000
  C   C54       1.0  0.3686042613118268  0.05815103378046891  0.052965788984971084  1.0000
  C   C55       1.0  0.868604261965703  0.4418489662697329  0.5529657892605432  1.0000
  C   C56       1.0  0.6313957386866019  0.9418489663199345  0.947034210914537  1.0000
  C   C57       1.0  0.11101729085804476  0.5421579968186495  0.35683174331004724  1.0000
  C   C58       1.0  0.3889827086357355  0.04215799753104776  0.14316825696880395  1.0000
  C   C59       1.0  0.888982709140384  0.457842002519154  0.6431682565894608  1.0000
  C   C60       1.0  0.6110172913626933  0.9578420025693558  0.8568317429307041  1.0000
  C   C61       1.0  0.20316514134026376  0.4708728128147316  0.3193710804977214  1.0000
  C   C62       1.0  0.29683485815351646  0.9708728128649333  0.1806289197811297  1.0000
  C   C63       1.0  0.7968348586581651  0.5291271872856719  0.6806289194017866  1.0000
  C   C64       1.0  0.7031651418449124  0.029127187235470163  0.8193710801183783  1.0000
  C   C65       1.0  0.31708046888099506  0.4159520947351611  0.37252407423602796  1.0000
  C   C66       1.0  0.18291953046355763  0.915952094785363  0.12747592538790797  1.0000
  C   C67       1.0  0.6829195311174338  0.5840479053652424  0.62747592566348  1.0000
  C   C68       1.0  0.8170804695348712  0.08404790531504062  0.8725240745116001  1.0000
  C   C69       1.0  0.33789269008356737  0.43199656988071383  0.4627118719046054  1.0000
  C   C70       1.0  0.16210731042108126  0.9319965699309156  0.03728812771605153  1.0000
  C   C71       1.0  0.6621073099148614  0.5680034302196897  0.5372881279949027  1.0000
  C   C72       1.0  0.8378926895773475  0.06800343016948796  0.9627118721834564  1.0000
  N   N1        1.0  0.8358393953723234  0.35718580822775053  0.9462985388267701  1.0000
  N   N2        1.0  0.664160605130754  0.8571858082779523  0.5537014606933949  1.0000
  N   N3        1.0  0.16416060462610546  0.6428141918726531  0.053701461072737953  1.0000
  N   N4        1.0  0.3358393948676747  0.14281419182245125  0.4462985392061132  1.0000
  N   N5        1.0  0.3263183500701789  0.4500004702643501  0.740658480904098  1.0000
  N   N6        1.0  0.1736816501787368  0.9500004703145518  0.7593415191876014  1.0000
  N   N7        1.0  0.67368164992825  0.5499995298360534  0.2593415189954101  1.0000
  N   N8        1.0  0.8263183499689195  0.049999529785851655  0.24065848136682189  1.0000
  O   O1        1.0  0.7513994869826642  0.29576423540865476  0.07379825179690312  1.0000
  O   O2        1.0  0.7486005127652776  0.7957642354588566  0.42620174791041354  1.0000
  O   O3        1.0  0.24860051301576455  0.7042357646917489  0.9262017481026049  1.0000
  O   O4        1.0  0.2513994872331511  0.20423576464154702  0.5737982519890944  1.0000
  O   O5        1.0  0.019082905899019707  0.48145382852354535  0.8788639961811519  1.0000
  O   O6        1.0  0.4809170931898001  0.9814538285737472  0.6211360039138265  1.0000
  O   O7        1.0  0.9809170929393132  0.5185461715768582  0.12113600372163526  1.0000
  O   O8        1.0  0.5190829069578563  0.018546171526656396  0.3788639966405967  1.0000
  O   O9        1.0  0.009247703272216147  0.3020457198656074  0.8309091368955102  1.0000
  O   O10       1.0  0.49075229697669953  0.8020457199158092  0.6690908631961893  1.0000
  O   O11       1.0  0.9907522967262127  0.697954280234796  0.16909086300399798  1.0000
  O   O12       1.0  0.5092477030217293  0.19795428018459435  0.33090913670331884  1.0000
  O   O13       1.0  0.36077075591211716  0.3674165007422202  0.7913230437230461  1.0000
  O   O14       1.0  0.13922924433679845  0.8674165007924219  0.7086769563686532  1.0000
  O   O15       1.0  0.6392292440863117  0.6325834993581834  0.20867695617646195  1.0000
  O   O16       1.0  0.8607707556616303  0.13258349930798158  0.2913230435308548  1.0000
  S   S1        1.0  0.001321738558866127  0.375286467301139  0.9007103746023823  1.0000
  S   S2        1.0  0.49867826169004953  0.8752864673513407  0.599289625489317  1.0000
  S   S3        1.0  0.9986782614395626  0.6247135327992646  0.09928962529712564  1.0000
  S   S4        1.0  0.5013217383083793  0.12471353274906274  0.40071037441019114  1.0000
  I   I1        1.0  0.6101282224414432  0.3665076195563611  0.8687400300081645  1.0000
  I   I2        1.0  0.8898717770507659  0.8665076196065629  0.6312599701701946  1.0000
  I   I3        1.0  0.38987177755698565  0.6334923805440424  0.13125996989134356  1.0000
  I   I4        1.0  0.1101282230968905  0.13349238049384068  0.36874003038422853  1.0000
